file 38463539 1694294644                                        
version 3
run cooperative_services-0-20230909-22:53:16-18472
attr configname cooperative_services
attr datetime 20230909-22:53:16
attr datetimef 20230909-225316
attr experiment cooperative_services
attr inifile omnetpp.ini
attr iterationvars ""
attr iterationvarsd ""
attr iterationvarsf ""
attr measurement ""
attr network simu5g.simulations.NR.mec.vehicularMec.vehicularMecTest
attr processid 18472
attr repetition 0
attr replication #0
attr resultdir results
attr runnumber 0
attr seedset 0
config image-path ../../../../images:../../../../../inet/images:../../../../../veins/images:../../../../../veins_inet/images
config sim-time-limit 30s
config cmdenv-output-file logs.txt
config cmdenv-express-mode false
config cmdenv-redirect-output true
config *.car[*].numApps 6
config **.ipv4.ip.crcMode "\"computed\""
config **.crcMode "\"computed\""
config **.radius 500
config *.car[*].app[2].typename DeviceApp
config *.car[*].app[2].localPort 4502
config *.car[*].app[2].UALCMPAddress "\"ualcmp\""
config *.car[*].app[2].UALCMPPort 1000
config *.car[*].app[2].appPackageSource "\"ApplicationDescriptors/PingPongApp.json\""
config *.car[*].app[3].typename UEPingPongApp
config *.car[*].app[3].name "\"CooperativeSensing\""
config *.car[*].app[3].deviceAppAddress "\"car[\"+string(ancestorIndex(1))+\"]\""
config *.car[*].app[3].deviceAppPort 4502
config *.car[*].app[3].startTime 0.1s
config *.car[*].app[3].localPort 4003
config *.car[*].app[3].payloadSize uniform(1000,40000)
config *.car[*].app[3].interReqTime uniform(0.01,1)
config *.car[*].app[3].mecAppName "\"CooperativeSensing_car[\"+string(ancestorIndex(1))+\"]\""
config *.car[*].app[4].typename DeviceApp
config *.car[*].app[4].localPort 4504
config *.car[*].app[4].UALCMPAddress "\"ualcmp\""
config *.car[*].app[4].UALCMPPort 1000
config *.car[*].app[4].appPackageSource "\"ApplicationDescriptors/PingPongApp.json\""
config *.car[*].app[5].typename UEPingPongApp
config *.car[*].app[5].name "\"CooperativeAwarness\""
config *.car[*].app[5].deviceAppAddress "\"car[\"+string(ancestorIndex(1))+\"]\""
config *.car[*].app[5].deviceAppPort 4504
config *.car[*].app[5].startTime 0.1s
config *.car[*].app[5].localPort 4005
config *.car[*].app[5].payloadSize uniform(1000,40000)
config *.car[*].app[5].interReqTime uniform(0.01,1)
config *.car[*].app[5].mecAppName "\"CooperativeAwarness_car[\"+string(ancestorIndex(1))+\"]\""
config *.car[*].app[0].typename DeviceApp
config *.car[*].app[0].localPort 4506
config *.car[*].app[0].UALCMPAddress "\"ualcmp\""
config *.car[*].app[0].UALCMPPort 1000
config *.car[*].app[0].appPackageSource "\"ApplicationDescriptors/PingPongApp.json\""
config *.car[*].app[1].typename UEPingPongApp
config *.car[*].app[1].name "\"CooperativeManeuver\""
config *.car[*].app[1].deviceAppAddress "\"car[\"+string(ancestorIndex(1))+\"]\""
config *.car[*].app[1].deviceAppPort 4506
config *.car[*].app[1].startTime 0.1s
config *.car[*].app[1].localPort 4006
config *.car[*].app[1].payloadSize uniform(1000,40000)
config *.car[*].app[1].interReqTime uniform(0.01,1)
config *.car[*].app[1].mecAppName "\"CooperativeAwarness_car[\"+string(ancestorIndex(1))+\"]\""
config image-path ../../../images
config cmdenv-express-mode true
config cmdenv-autoflush true
config num-rngs 3
config repeat 5
config seed-set 0
config output-scalar-file-append false
config output-vector-file results/cooperative_services/0.vec
config output-scalar-file results/cooperative_services/0.sca
config **.routingRecorder.enabled false
config **.mecHost.**.vector-recording true
config **.mecHost.**.scalar-recording true
config **.vector-recording true
config **.scalar-recording true
config **.statistic-recording true
config **.bin-recording true
config debug-on-errors false
config sim-time-limit 20s
config *.playgroundSizeX 11000m
config *.playgroundSizeY 8000m
config *.playgroundSizeZ 500m
config *.configurator.config "xmldoc(\"./demo.xml\")"
config *.gNodeB*.cellInfo.broadcastMessageInterval 0.5s
config **.fbPeriod 40
config **.amcType "\"NRAmc\""
config **.pilotMode "\"ROBUST_CQI\""
config **.targetBler 0.01
config **.blerShift 5
config network simu5g.simulations.NR.mec.vehicularMec.vehicularMecTest
config *.carrierAggregation.numComponentCarriers 1
config *.carrierAggregation.componentCarrier[0].carrierFrequency "replaceUnit ((index+1), 'GHz')"
config *.carrierAggregation.componentCarrier[0].numerologyIndex 1
config *.carrierAggregation.componentCarrier[0].numBands 25
config *.*.cellularNic.LteChannelModelType "\"NRChannelModel\""
config *.gNodeB1.cellularNic.numCarriers 1
config *.gNodeB1.cellularNic.channelModel[0].componentCarrierIndex index
config *.car[*].cellularNic.numCarriers 1
config *.car[*].cellularNic.nrChannelModel[0].componentCarrierIndex 0
config *.car[*].veinsmobilityType "\"org.car2x.veins.modules.mobility.traci.TraCIMobility\""
config *.car[*].veinsmobility.x 0
config *.car[*].veinsmobility.y 0
config *.car[*].veinsmobility.z 0
config *.veinsManager.host "\"localhost\""
config *.veinsManager.moduleType "\"simu5g.nodes.cars.NRCar\""
config *.veinsManager.moduleName "\"car\""
config *.veinsManager.launchConfig "xmldoc(\"erlangen.launchd.xml\")"
config *.veinsManager.updateInterval 1s
config *.manager.updateInterval 1s
config *.manager.host "\"localhost\""
config *.manager.autoShutdown true
config *.manager.launchConfig "xmldoc(\"erlangen.launchd.xml\")"
config *.manager.moduleType "\"simu5g.nodes.NR.NRCarTrackable\""
config *.manager.moduleName "\"car\""
config *.connectionManager.sendDirect false
config *.connectionManager.maxInterfDist 0m
config *.connectionManager.drawMaxIntfDist false
config *.gNodeB*.mobility.initFromDisplayString true
config **.car[*].masterId 0
config **.car[*].macCellId 0
config **.car[*].nrMasterId 1
config **.car[*].nrMacCellId 1
config **.gNodeB1.macCellId 1
config **.gNodeB1.macNodeId 1
config **.tcp.typename Tcp
config **.tcp.advertisedWindow 65535
config **.tcp.tcpAlgorithmClass "\"TcpReno\""
config **.tcp.sackSupport true
config **.hasRNISupport false
config *.car[*].numApps 4
config *.car[*].app[0].typename DeviceApp
config *.car[*].app[0].localPort 4500
config *.car[*].app[0].UALCMPAddress "\"ualcmp\""
config *.car[*].app[0].UALCMPPort 1000
config *.car[*].app[0].appPackageSource "\"ApplicationDescriptors/PingPongApp.json\""
config *.car[*].app[1].typename UEPingPongApp
config *.car[*].app[1].name "\"Platooning\""
config *.car[*].app[1].deviceAppAddress "\"car[\"+string(ancestorIndex(1))+\"]\""
config *.car[*].app[1].deviceAppPort 4500
config *.car[*].app[1].localPort 4000
config *.car[*].app[1].startTime 1s
config *.car[*].app[1].payloadSize 6500
config *.car[*].app[1].interReqTime 0.02
config *.car[*].app[1].test 1
config *.car[*].app[1].mecAppName "\"Platooning_car[\"+string(ancestorIndex(1))+\"]\""
config *.car[*].app[2].typename DeviceApp
config *.car[*].app[2].localPort 4502
config *.car[*].app[2].UALCMPAddress "\"ualcmp\""
config *.car[*].app[2].UALCMPPort 1000
config *.car[*].app[2].appPackageSource "\"ApplicationDescriptors/PingPongApp.json\""
config *.car[*].app[3].typename UEPingPongApp
config *.car[*].app[3].name "\"Remote_driving\""
config *.car[*].app[3].deviceAppAddress "\"car[\"+string(ancestorIndex(1))+\"]\""
config *.car[*].app[3].deviceAppPort 4502
config *.car[*].app[3].startTime 1s
config *.car[*].app[3].localPort 4002
config *.car[*].app[3].payloadSize 12000
config *.car[*].app[3].interReqTime 0.01
config *.car[*].app[3].test 1
config *.car[*].app[3].mecAppName "\"Remote_driving_car[\"+string(ancestorIndex(1))+\"]\""
config **.numCars 1
config *.mecHost.maxMECApps 100000
config *.mecHost.maxRam 320000GB
config *.mecHost.maxDisk 200000TB
config *.mecHost.maxCpuSpeed 10000000
config **.maxCpuSpeed 100000
config *.gNodeB*.mecHost "\"mecHost\""
config *.mecHost.bsList "\"gNodeB1\""
config *.mecHost.mecPlatformManager.mecOrchestrator "\"mecOrchestrator\""
config *.mecHost.mecPlatform.numMecServices 1
config *.mecHost.mecPlatform.mecService[0].typename LocationService
config *.mecHost.mecPlatform.mecService[0].localAddress "\"mecHost.virtualisationInfrastructure\""
config *.mecHost.mecPlatform.mecService[0].localPort 10020
config *.mecHost.mecPlatform.mecService[0].rng-0 0
config *.mecHost.mecPlatform.mecService[0].rng-1 1
config *.mecHost.mecPlatform.mecService[0].requestServiceTime 100us
config *.mecHost.mecPlatform.mecService[0].subscriptionServiceTime 11us
config *.mecHost.mecPlatform.serviceRegistry.localAddress "\"mecHost.virtualisationInfrastructure\""
config *.mecHost.mecPlatform.serviceRegistry.localPort 10021
config *.mecHost.mecPlatform.serviceRegistry.rng-0 0
config *.mecHost.mecPlatform.serviceRegistry.rng-1 1
config **.mecOrchestrator.mecHostList "\"mecHost\""
config *.mecOrchestrator.mecApplicationPackageList "\"PingPongApp\""

vector 0 vehicularMecTest.upf.ppp[0].ppp transmissionState:vector ETV
attr interpolationmode sample-hold
attr recordingmode vector
attr source transmissionStateChanged
attr title "tx state"
vector 1 vehicularMecTest.upf.pppIf.ppp transmissionState:vector ETV
attr interpolationmode sample-hold
attr recordingmode vector
attr source transmissionStateChanged
attr title "tx state"
vector 2 vehicularMecTest.upf.udp passedUpPk:vector(count) ETV
attr interpolationmode none
attr recordingmode vector(count)
attr source packetSentToUpper
attr title "packets passed up, count"
vector 3 vehicularMecTest.upf.udp droppedPkWrongPort:vector(count) ETV
attr interpolationmode none
attr recordingmode vector(count)
attr source packetDropReasonIsNoPortFound(packetDropped)
attr title "packets dropped (wrong port), count"
vector 4 vehicularMecTest.upf.udp droppedPkBadChecksum:vector(count) ETV
attr interpolationmode none
attr recordingmode vector(count)
attr source packetDropReasonIsIncorrectlyReceived(packetDropped)
attr title "packets dropped (checksum error), count"
vector 5 vehicularMecTest.gNodeB1.pppIf.ppp transmissionState:vector ETV
attr interpolationmode sample-hold
attr recordingmode vector
attr source transmissionStateChanged
attr title "tx state"
vector 6 vehicularMecTest.gNodeB1.pppMEHostIf.ppp transmissionState:vector ETV
attr interpolationmode sample-hold
attr recordingmode vector
attr source transmissionStateChanged
attr title "tx state"
vector 7 vehicularMecTest.gNodeB1.udp passedUpPk:vector(count) ETV
attr interpolationmode none
attr recordingmode vector(count)
attr source packetSentToUpper
attr title "packets passed up, count"
vector 8 vehicularMecTest.gNodeB1.udp droppedPkWrongPort:vector(count) ETV
attr interpolationmode none
attr recordingmode vector(count)
attr source packetDropReasonIsNoPortFound(packetDropped)
attr title "packets dropped (wrong port), count"
vector 9 vehicularMecTest.gNodeB1.udp droppedPkBadChecksum:vector(count) ETV
attr interpolationmode none
attr recordingmode vector(count)
attr source packetDropReasonIsIncorrectlyReceived(packetDropped)
attr title "packets dropped (checksum error), count"
vector 10 vehicularMecTest.mecHost.virtualisationInfrastructure.pppIf[0].ppp transmissionState:vector ETV
attr interpolationmode sample-hold
attr recordingmode vector
attr source transmissionStateChanged
attr title "tx state"
vector 11 vehicularMecTest.mecHost.virtualisationInfrastructure.udp passedUpPk:vector(count) ETV
attr interpolationmode none
attr recordingmode vector(count)
attr source packetSentToUpper
attr title "packets passed up, count"
vector 12 vehicularMecTest.mecHost.virtualisationInfrastructure.udp droppedPkWrongPort:vector(count) ETV
attr interpolationmode none
attr recordingmode vector(count)
attr source packetDropReasonIsNoPortFound(packetDropped)
attr title "packets dropped (wrong port), count"
vector 13 vehicularMecTest.mecHost.virtualisationInfrastructure.udp droppedPkBadChecksum:vector(count) ETV
attr interpolationmode none
attr recordingmode vector(count)
attr source packetDropReasonIsIncorrectlyReceived(packetDropped)
attr title "packets dropped (checksum error), count"
vector 14 vehicularMecTest.mecHost.upf_mec.ppp[0].ppp transmissionState:vector ETV
attr interpolationmode sample-hold
attr recordingmode vector
attr source transmissionStateChanged
attr title "tx state"
vector 15 vehicularMecTest.mecHost.upf_mec.pppIf.ppp transmissionState:vector ETV
attr interpolationmode sample-hold
attr recordingmode vector
attr source transmissionStateChanged
attr title "tx state"
vector 16 vehicularMecTest.mecHost.upf_mec.udp passedUpPk:vector(count) ETV
attr interpolationmode none
attr recordingmode vector(count)
attr source packetSentToUpper
attr title "packets passed up, count"
vector 17 vehicularMecTest.mecHost.upf_mec.udp droppedPkWrongPort:vector(count) ETV
attr interpolationmode none
attr recordingmode vector(count)
attr source packetDropReasonIsNoPortFound(packetDropped)
attr title "packets dropped (wrong port), count"
vector 18 vehicularMecTest.mecHost.upf_mec.udp droppedPkBadChecksum:vector(count) ETV
attr interpolationmode none
attr recordingmode vector(count)
attr source packetDropReasonIsIncorrectlyReceived(packetDropped)
attr title "packets dropped (checksum error), count"
vector 19 vehicularMecTest.ualcmp.pppIf.ppp transmissionState:vector ETV
attr interpolationmode sample-hold
attr recordingmode vector
attr source transmissionStateChanged
attr title "tx state"
vector 20 vehicularMecTest.ualcmp.udp passedUpPk:vector(count) ETV
attr interpolationmode none
attr recordingmode vector(count)
attr source packetSentToUpper
attr title "packets passed up, count"
vector 21 vehicularMecTest.ualcmp.udp droppedPkWrongPort:vector(count) ETV
attr interpolationmode none
attr recordingmode vector(count)
attr source packetDropReasonIsNoPortFound(packetDropped)
attr title "packets dropped (wrong port), count"
vector 22 vehicularMecTest.ualcmp.udp droppedPkBadChecksum:vector(count) ETV
attr interpolationmode none
attr recordingmode vector(count)
attr source packetDropReasonIsIncorrectlyReceived(packetDropped)
attr title "packets dropped (checksum error), count"
vector 23 vehicularMecTest.gNodeB1.cellularNic.mac avgServedBlocksUl:vector ETV
attr recordingmode vector
attr source avgServedBlocksUl
attr title "Avg Served Blocks Ul"
attr unit blocks
vector 24 vehicularMecTest.gNodeB1.cellularNic.mac avgServedBlocksDl:vector ETV
attr recordingmode vector
attr source avgServedBlocksDl
attr title "Avg Served Blocks Dl"
attr unit blocks
vector 25 vehicularMecTest.car[0].udp passedUpPk:vector(count) ETV
attr interpolationmode none
attr recordingmode vector(count)
attr source packetSentToUpper
attr title "packets passed up, count"
vector 26 vehicularMecTest.car[0].udp droppedPkWrongPort:vector(count) ETV
attr interpolationmode none
attr recordingmode vector(count)
attr source packetDropReasonIsNoPortFound(packetDropped)
attr title "packets dropped (wrong port), count"
vector 27 vehicularMecTest.car[0].udp droppedPkBadChecksum:vector(count) ETV
attr interpolationmode none
attr recordingmode vector(count)
attr source packetDropReasonIsIncorrectlyReceived(packetDropped)
attr title "packets dropped (checksum error), count"
vector 28 vehicularMecTest.car[0].cellularNic.phy servingCell:vector ETV
attr recordingmode vector
attr source servingCell
attr title "ID of the serving eNodeB for the UE"
attr unit ""
vector 29 vehicularMecTest.car[0].cellularNic.nrPhy servingCell:vector ETV
attr recordingmode vector
attr source servingCell
attr title "ID of the serving eNodeB for the UE"
attr unit ""
vector 30 vehicularMecTest.car[0].veinsmobility posx ETV
vector 31 vehicularMecTest.car[0].veinsmobility posy ETV
vector 32 vehicularMecTest.car[1].udp passedUpPk:vector(count) ETV
attr interpolationmode none
attr recordingmode vector(count)
attr source packetSentToUpper
attr title "packets passed up, count"
vector 33 vehicularMecTest.car[1].udp droppedPkWrongPort:vector(count) ETV
attr interpolationmode none
attr recordingmode vector(count)
attr source packetDropReasonIsNoPortFound(packetDropped)
attr title "packets dropped (wrong port), count"
vector 34 vehicularMecTest.car[1].udp droppedPkBadChecksum:vector(count) ETV
attr interpolationmode none
attr recordingmode vector(count)
attr source packetDropReasonIsIncorrectlyReceived(packetDropped)
attr title "packets dropped (checksum error), count"
vector 35 vehicularMecTest.car[1].cellularNic.phy servingCell:vector ETV
attr recordingmode vector
attr source servingCell
attr title "ID of the serving eNodeB for the UE"
attr unit ""
vector 36 vehicularMecTest.car[1].cellularNic.nrPhy servingCell:vector ETV
attr recordingmode vector
attr source servingCell
attr title "ID of the serving eNodeB for the UE"
attr unit ""
vector 37 vehicularMecTest.car[1].veinsmobility posx ETV
vector 38 vehicularMecTest.car[1].veinsmobility posy ETV
vector 39 vehicularMecTest.car[2].udp passedUpPk:vector(count) ETV
attr interpolationmode none
attr recordingmode vector(count)
attr source packetSentToUpper
attr title "packets passed up, count"
vector 40 vehicularMecTest.car[2].udp droppedPkWrongPort:vector(count) ETV
attr interpolationmode none
attr recordingmode vector(count)
attr source packetDropReasonIsNoPortFound(packetDropped)
attr title "packets dropped (wrong port), count"
vector 41 vehicularMecTest.car[2].udp droppedPkBadChecksum:vector(count) ETV
attr interpolationmode none
attr recordingmode vector(count)
attr source packetDropReasonIsIncorrectlyReceived(packetDropped)
attr title "packets dropped (checksum error), count"
vector 42 vehicularMecTest.car[2].cellularNic.phy servingCell:vector ETV
attr recordingmode vector
attr source servingCell
attr title "ID of the serving eNodeB for the UE"
attr unit ""
vector 43 vehicularMecTest.car[2].cellularNic.nrPhy servingCell:vector ETV
attr recordingmode vector
attr source servingCell
attr title "ID of the serving eNodeB for the UE"
attr unit ""
vector 44 vehicularMecTest.car[2].veinsmobility posx ETV
vector 45 vehicularMecTest.car[2].veinsmobility posy ETV
vector 46 vehicularMecTest.car[3].udp passedUpPk:vector(count) ETV
attr interpolationmode none
attr recordingmode vector(count)
attr source packetSentToUpper
attr title "packets passed up, count"
vector 47 vehicularMecTest.car[3].udp droppedPkWrongPort:vector(count) ETV
attr interpolationmode none
attr recordingmode vector(count)
attr source packetDropReasonIsNoPortFound(packetDropped)
attr title "packets dropped (wrong port), count"
vector 48 vehicularMecTest.car[3].udp droppedPkBadChecksum:vector(count) ETV
attr interpolationmode none
attr recordingmode vector(count)
attr source packetDropReasonIsIncorrectlyReceived(packetDropped)
attr title "packets dropped (checksum error), count"
vector 49 vehicularMecTest.car[3].cellularNic.phy servingCell:vector ETV
attr recordingmode vector
attr source servingCell
attr title "ID of the serving eNodeB for the UE"
attr unit ""
vector 50 vehicularMecTest.car[3].cellularNic.nrPhy servingCell:vector ETV
attr recordingmode vector
attr source servingCell
attr title "ID of the serving eNodeB for the UE"
attr unit ""
vector 51 vehicularMecTest.car[3].veinsmobility posx ETV
vector 52 vehicularMecTest.car[3].veinsmobility posy ETV
vector 53 vehicularMecTest.car[4].udp passedUpPk:vector(count) ETV
attr interpolationmode none
attr recordingmode vector(count)
attr source packetSentToUpper
attr title "packets passed up, count"
vector 54 vehicularMecTest.car[4].udp droppedPkWrongPort:vector(count) ETV
attr interpolationmode none
attr recordingmode vector(count)
attr source packetDropReasonIsNoPortFound(packetDropped)
attr title "packets dropped (wrong port), count"
vector 55 vehicularMecTest.car[4].udp droppedPkBadChecksum:vector(count) ETV
attr interpolationmode none
attr recordingmode vector(count)
attr source packetDropReasonIsIncorrectlyReceived(packetDropped)
attr title "packets dropped (checksum error), count"
vector 56 vehicularMecTest.car[4].cellularNic.phy servingCell:vector ETV
attr recordingmode vector
attr source servingCell
attr title "ID of the serving eNodeB for the UE"
attr unit ""
vector 57 vehicularMecTest.car[4].cellularNic.nrPhy servingCell:vector ETV
attr recordingmode vector
attr source servingCell
attr title "ID of the serving eNodeB for the UE"
attr unit ""
vector 58 vehicularMecTest.car[4].veinsmobility posx ETV
vector 59 vehicularMecTest.car[4].veinsmobility posy ETV
vector 60 vehicularMecTest.car[5].udp passedUpPk:vector(count) ETV
attr interpolationmode none
attr recordingmode vector(count)
attr source packetSentToUpper
attr title "packets passed up, count"
vector 61 vehicularMecTest.car[5].udp droppedPkWrongPort:vector(count) ETV
attr interpolationmode none
attr recordingmode vector(count)
attr source packetDropReasonIsNoPortFound(packetDropped)
attr title "packets dropped (wrong port), count"
vector 62 vehicularMecTest.car[5].udp droppedPkBadChecksum:vector(count) ETV
attr interpolationmode none
attr recordingmode vector(count)
attr source packetDropReasonIsIncorrectlyReceived(packetDropped)
attr title "packets dropped (checksum error), count"
vector 63 vehicularMecTest.car[5].cellularNic.phy servingCell:vector ETV
attr recordingmode vector
attr source servingCell
attr title "ID of the serving eNodeB for the UE"
attr unit ""
vector 64 vehicularMecTest.car[5].cellularNic.nrPhy servingCell:vector ETV
attr recordingmode vector
attr source servingCell
attr title "ID of the serving eNodeB for the UE"
attr unit ""
vector 65 vehicularMecTest.car[5].veinsmobility posx ETV
vector 66 vehicularMecTest.car[5].veinsmobility posy ETV
vector 67 vehicularMecTest.car[6].udp passedUpPk:vector(count) ETV
attr interpolationmode none
attr recordingmode vector(count)
attr source packetSentToUpper
attr title "packets passed up, count"
vector 68 vehicularMecTest.car[6].udp droppedPkWrongPort:vector(count) ETV
attr interpolationmode none
attr recordingmode vector(count)
attr source packetDropReasonIsNoPortFound(packetDropped)
attr title "packets dropped (wrong port), count"
vector 69 vehicularMecTest.car[6].udp droppedPkBadChecksum:vector(count) ETV
attr interpolationmode none
attr recordingmode vector(count)
attr source packetDropReasonIsIncorrectlyReceived(packetDropped)
attr title "packets dropped (checksum error), count"
vector 70 vehicularMecTest.car[6].cellularNic.phy servingCell:vector ETV
attr recordingmode vector
attr source servingCell
attr title "ID of the serving eNodeB for the UE"
attr unit ""
vector 71 vehicularMecTest.car[6].cellularNic.nrPhy servingCell:vector ETV
attr recordingmode vector
attr source servingCell
attr title "ID of the serving eNodeB for the UE"
attr unit ""
vector 72 vehicularMecTest.car[6].veinsmobility posx ETV
vector 73 vehicularMecTest.car[6].veinsmobility posy ETV
vector 74 vehicularMecTest.car[7].udp passedUpPk:vector(count) ETV
attr interpolationmode none
attr recordingmode vector(count)
attr source packetSentToUpper
attr title "packets passed up, count"
vector 75 vehicularMecTest.car[7].udp droppedPkWrongPort:vector(count) ETV
attr interpolationmode none
attr recordingmode vector(count)
attr source packetDropReasonIsNoPortFound(packetDropped)
attr title "packets dropped (wrong port), count"
vector 76 vehicularMecTest.car[7].udp droppedPkBadChecksum:vector(count) ETV
attr interpolationmode none
attr recordingmode vector(count)
attr source packetDropReasonIsIncorrectlyReceived(packetDropped)
attr title "packets dropped (checksum error), count"
vector 77 vehicularMecTest.car[7].cellularNic.phy servingCell:vector ETV
attr recordingmode vector
attr source servingCell
attr title "ID of the serving eNodeB for the UE"
attr unit ""
vector 78 vehicularMecTest.car[7].cellularNic.nrPhy servingCell:vector ETV
attr recordingmode vector
attr source servingCell
attr title "ID of the serving eNodeB for the UE"
attr unit ""
vector 79 vehicularMecTest.car[7].veinsmobility posx ETV
vector 80 vehicularMecTest.car[7].veinsmobility posy ETV
vector 81 vehicularMecTest.car[8].udp passedUpPk:vector(count) ETV
attr interpolationmode none
attr recordingmode vector(count)
attr source packetSentToUpper
attr title "packets passed up, count"
vector 82 vehicularMecTest.car[8].udp droppedPkWrongPort:vector(count) ETV
attr interpolationmode none
attr recordingmode vector(count)
attr source packetDropReasonIsNoPortFound(packetDropped)
attr title "packets dropped (wrong port), count"
vector 83 vehicularMecTest.car[8].udp droppedPkBadChecksum:vector(count) ETV
attr interpolationmode none
attr recordingmode vector(count)
attr source packetDropReasonIsIncorrectlyReceived(packetDropped)
attr title "packets dropped (checksum error), count"
vector 84 vehicularMecTest.car[8].cellularNic.phy servingCell:vector ETV
attr recordingmode vector
attr source servingCell
attr title "ID of the serving eNodeB for the UE"
attr unit ""
vector 85 vehicularMecTest.car[8].cellularNic.nrPhy servingCell:vector ETV
attr recordingmode vector
attr source servingCell
attr title "ID of the serving eNodeB for the UE"
attr unit ""
vector 86 vehicularMecTest.car[8].veinsmobility posx ETV
vector 87 vehicularMecTest.car[8].veinsmobility posy ETV
vector 88 vehicularMecTest.car[9].udp passedUpPk:vector(count) ETV
attr interpolationmode none
attr recordingmode vector(count)
attr source packetSentToUpper
attr title "packets passed up, count"
vector 89 vehicularMecTest.car[9].udp droppedPkWrongPort:vector(count) ETV
attr interpolationmode none
attr recordingmode vector(count)
attr source packetDropReasonIsNoPortFound(packetDropped)
attr title "packets dropped (wrong port), count"
vector 90 vehicularMecTest.car[9].udp droppedPkBadChecksum:vector(count) ETV
attr interpolationmode none
attr recordingmode vector(count)
attr source packetDropReasonIsIncorrectlyReceived(packetDropped)
attr title "packets dropped (checksum error), count"
vector 91 vehicularMecTest.car[9].cellularNic.phy servingCell:vector ETV
attr recordingmode vector
attr source servingCell
attr title "ID of the serving eNodeB for the UE"
attr unit ""
vector 92 vehicularMecTest.car[9].cellularNic.nrPhy servingCell:vector ETV
attr recordingmode vector
attr source servingCell
attr title "ID of the serving eNodeB for the UE"
attr unit ""
vector 93 vehicularMecTest.car[9].veinsmobility posx ETV
vector 94 vehicularMecTest.car[9].veinsmobility posy ETV
vector 95 vehicularMecTest.car[10].udp passedUpPk:vector(count) ETV
attr interpolationmode none
attr recordingmode vector(count)
attr source packetSentToUpper
attr title "packets passed up, count"
vector 96 vehicularMecTest.car[10].udp droppedPkWrongPort:vector(count) ETV
attr interpolationmode none
attr recordingmode vector(count)
attr source packetDropReasonIsNoPortFound(packetDropped)
attr title "packets dropped (wrong port), count"
vector 97 vehicularMecTest.car[10].udp droppedPkBadChecksum:vector(count) ETV
attr interpolationmode none
attr recordingmode vector(count)
attr source packetDropReasonIsIncorrectlyReceived(packetDropped)
attr title "packets dropped (checksum error), count"
vector 98 vehicularMecTest.car[10].cellularNic.phy servingCell:vector ETV
attr recordingmode vector
attr source servingCell
attr title "ID of the serving eNodeB for the UE"
attr unit ""
vector 99 vehicularMecTest.car[10].cellularNic.nrPhy servingCell:vector ETV
attr recordingmode vector
attr source servingCell
attr title "ID of the serving eNodeB for the UE"
attr unit ""
vector 100 vehicularMecTest.car[10].veinsmobility posx ETV
vector 101 vehicularMecTest.car[10].veinsmobility posy ETV
vector 102 vehicularMecTest.car[11].udp passedUpPk:vector(count) ETV
attr interpolationmode none
attr recordingmode vector(count)
attr source packetSentToUpper
attr title "packets passed up, count"
vector 103 vehicularMecTest.car[11].udp droppedPkWrongPort:vector(count) ETV
attr interpolationmode none
attr recordingmode vector(count)
attr source packetDropReasonIsNoPortFound(packetDropped)
attr title "packets dropped (wrong port), count"
vector 104 vehicularMecTest.car[11].udp droppedPkBadChecksum:vector(count) ETV
attr interpolationmode none
attr recordingmode vector(count)
attr source packetDropReasonIsIncorrectlyReceived(packetDropped)
attr title "packets dropped (checksum error), count"
vector 105 vehicularMecTest.car[11].cellularNic.phy servingCell:vector ETV
attr recordingmode vector
attr source servingCell
attr title "ID of the serving eNodeB for the UE"
attr unit ""
vector 106 vehicularMecTest.car[11].cellularNic.nrPhy servingCell:vector ETV
attr recordingmode vector
attr source servingCell
attr title "ID of the serving eNodeB for the UE"
attr unit ""
vector 107 vehicularMecTest.car[11].veinsmobility posx ETV
vector 108 vehicularMecTest.car[11].veinsmobility posy ETV
vector 109 vehicularMecTest.car[12].udp passedUpPk:vector(count) ETV
attr interpolationmode none
attr recordingmode vector(count)
attr source packetSentToUpper
attr title "packets passed up, count"
vector 110 vehicularMecTest.car[12].udp droppedPkWrongPort:vector(count) ETV
attr interpolationmode none
attr recordingmode vector(count)
attr source packetDropReasonIsNoPortFound(packetDropped)
attr title "packets dropped (wrong port), count"
vector 111 vehicularMecTest.car[12].udp droppedPkBadChecksum:vector(count) ETV
attr interpolationmode none
attr recordingmode vector(count)
attr source packetDropReasonIsIncorrectlyReceived(packetDropped)
attr title "packets dropped (checksum error), count"
vector 112 vehicularMecTest.car[12].cellularNic.phy servingCell:vector ETV
attr recordingmode vector
attr source servingCell
attr title "ID of the serving eNodeB for the UE"
attr unit ""
vector 113 vehicularMecTest.car[12].cellularNic.nrPhy servingCell:vector ETV
attr recordingmode vector
attr source servingCell
attr title "ID of the serving eNodeB for the UE"
attr unit ""
vector 114 vehicularMecTest.car[12].veinsmobility posx ETV
vector 115 vehicularMecTest.car[12].veinsmobility posy ETV
vector 116 vehicularMecTest.car[13].udp passedUpPk:vector(count) ETV
attr interpolationmode none
attr recordingmode vector(count)
attr source packetSentToUpper
attr title "packets passed up, count"
vector 117 vehicularMecTest.car[13].udp droppedPkWrongPort:vector(count) ETV
attr interpolationmode none
attr recordingmode vector(count)
attr source packetDropReasonIsNoPortFound(packetDropped)
attr title "packets dropped (wrong port), count"
vector 118 vehicularMecTest.car[13].udp droppedPkBadChecksum:vector(count) ETV
attr interpolationmode none
attr recordingmode vector(count)
attr source packetDropReasonIsIncorrectlyReceived(packetDropped)
attr title "packets dropped (checksum error), count"
vector 119 vehicularMecTest.car[13].cellularNic.phy servingCell:vector ETV
attr recordingmode vector
attr source servingCell
attr title "ID of the serving eNodeB for the UE"
attr unit ""
vector 120 vehicularMecTest.car[13].cellularNic.nrPhy servingCell:vector ETV
attr recordingmode vector
attr source servingCell
attr title "ID of the serving eNodeB for the UE"
attr unit ""
vector 121 vehicularMecTest.car[13].veinsmobility posx ETV
vector 122 vehicularMecTest.car[13].veinsmobility posy ETV
vector 123 vehicularMecTest.car[14].udp passedUpPk:vector(count) ETV
attr interpolationmode none
attr recordingmode vector(count)
attr source packetSentToUpper
attr title "packets passed up, count"
vector 124 vehicularMecTest.car[14].udp droppedPkWrongPort:vector(count) ETV
attr interpolationmode none
attr recordingmode vector(count)
attr source packetDropReasonIsNoPortFound(packetDropped)
attr title "packets dropped (wrong port), count"
vector 125 vehicularMecTest.car[14].udp droppedPkBadChecksum:vector(count) ETV
attr interpolationmode none
attr recordingmode vector(count)
attr source packetDropReasonIsIncorrectlyReceived(packetDropped)
attr title "packets dropped (checksum error), count"
vector 126 vehicularMecTest.car[14].cellularNic.phy servingCell:vector ETV
attr recordingmode vector
attr source servingCell
attr title "ID of the serving eNodeB for the UE"
attr unit ""
vector 127 vehicularMecTest.car[14].cellularNic.nrPhy servingCell:vector ETV
attr recordingmode vector
attr source servingCell
attr title "ID of the serving eNodeB for the UE"
attr unit ""
vector 128 vehicularMecTest.car[14].veinsmobility posx ETV
vector 129 vehicularMecTest.car[14].veinsmobility posy ETV
vector 130 vehicularMecTest.car[15].udp passedUpPk:vector(count) ETV
attr interpolationmode none
attr recordingmode vector(count)
attr source packetSentToUpper
attr title "packets passed up, count"
vector 131 vehicularMecTest.car[15].udp droppedPkWrongPort:vector(count) ETV
attr interpolationmode none
attr recordingmode vector(count)
attr source packetDropReasonIsNoPortFound(packetDropped)
attr title "packets dropped (wrong port), count"
vector 132 vehicularMecTest.car[15].udp droppedPkBadChecksum:vector(count) ETV
attr interpolationmode none
attr recordingmode vector(count)
attr source packetDropReasonIsIncorrectlyReceived(packetDropped)
attr title "packets dropped (checksum error), count"
vector 133 vehicularMecTest.car[15].cellularNic.phy servingCell:vector ETV
attr recordingmode vector
attr source servingCell
attr title "ID of the serving eNodeB for the UE"
attr unit ""
vector 134 vehicularMecTest.car[15].cellularNic.nrPhy servingCell:vector ETV
attr recordingmode vector
attr source servingCell
attr title "ID of the serving eNodeB for the UE"
attr unit ""
vector 135 vehicularMecTest.car[15].veinsmobility posx ETV
vector 136 vehicularMecTest.car[15].veinsmobility posy ETV
vector 137 vehicularMecTest.car[16].udp passedUpPk:vector(count) ETV
attr interpolationmode none
attr recordingmode vector(count)
attr source packetSentToUpper
attr title "packets passed up, count"
vector 138 vehicularMecTest.car[16].udp droppedPkWrongPort:vector(count) ETV
attr interpolationmode none
attr recordingmode vector(count)
attr source packetDropReasonIsNoPortFound(packetDropped)
attr title "packets dropped (wrong port), count"
vector 139 vehicularMecTest.car[16].udp droppedPkBadChecksum:vector(count) ETV
attr interpolationmode none
attr recordingmode vector(count)
attr source packetDropReasonIsIncorrectlyReceived(packetDropped)
attr title "packets dropped (checksum error), count"
vector 140 vehicularMecTest.car[16].cellularNic.phy servingCell:vector ETV
attr recordingmode vector
attr source servingCell
attr title "ID of the serving eNodeB for the UE"
attr unit ""
vector 141 vehicularMecTest.car[16].cellularNic.nrPhy servingCell:vector ETV
attr recordingmode vector
attr source servingCell
attr title "ID of the serving eNodeB for the UE"
attr unit ""
vector 142 vehicularMecTest.car[16].veinsmobility posx ETV
vector 143 vehicularMecTest.car[16].veinsmobility posy ETV
vector 144 vehicularMecTest.car[17].udp passedUpPk:vector(count) ETV
attr interpolationmode none
attr recordingmode vector(count)
attr source packetSentToUpper
attr title "packets passed up, count"
vector 145 vehicularMecTest.car[17].udp droppedPkWrongPort:vector(count) ETV
attr interpolationmode none
attr recordingmode vector(count)
attr source packetDropReasonIsNoPortFound(packetDropped)
attr title "packets dropped (wrong port), count"
vector 146 vehicularMecTest.car[17].udp droppedPkBadChecksum:vector(count) ETV
attr interpolationmode none
attr recordingmode vector(count)
attr source packetDropReasonIsIncorrectlyReceived(packetDropped)
attr title "packets dropped (checksum error), count"
vector 147 vehicularMecTest.car[17].cellularNic.phy servingCell:vector ETV
attr recordingmode vector
attr source servingCell
attr title "ID of the serving eNodeB for the UE"
attr unit ""
vector 148 vehicularMecTest.car[17].cellularNic.nrPhy servingCell:vector ETV
attr recordingmode vector
attr source servingCell
attr title "ID of the serving eNodeB for the UE"
attr unit ""
vector 149 vehicularMecTest.car[17].veinsmobility posx ETV
vector 150 vehicularMecTest.car[17].veinsmobility posy ETV
vector 151 vehicularMecTest.car[18].udp passedUpPk:vector(count) ETV
attr interpolationmode none
attr recordingmode vector(count)
attr source packetSentToUpper
attr title "packets passed up, count"
vector 152 vehicularMecTest.car[18].udp droppedPkWrongPort:vector(count) ETV
attr interpolationmode none
attr recordingmode vector(count)
attr source packetDropReasonIsNoPortFound(packetDropped)
attr title "packets dropped (wrong port), count"
vector 153 vehicularMecTest.car[18].udp droppedPkBadChecksum:vector(count) ETV
attr interpolationmode none
attr recordingmode vector(count)
attr source packetDropReasonIsIncorrectlyReceived(packetDropped)
attr title "packets dropped (checksum error), count"
vector 154 vehicularMecTest.car[18].cellularNic.phy servingCell:vector ETV
attr recordingmode vector
attr source servingCell
attr title "ID of the serving eNodeB for the UE"
attr unit ""
vector 155 vehicularMecTest.car[18].cellularNic.nrPhy servingCell:vector ETV
attr recordingmode vector
attr source servingCell
attr title "ID of the serving eNodeB for the UE"
attr unit ""
vector 156 vehicularMecTest.car[18].veinsmobility posx ETV
vector 157 vehicularMecTest.car[18].veinsmobility posy ETV
vector 158 vehicularMecTest.car[0].tcp.conn-207 tcpRcvQueueBytes:vector ETV
attr interpolationmode sample-hold
attr recordingmode vector
vector 159 vehicularMecTest.car[0].tcp.conn-207 rcvAdv:vector ETV
attr interpolationmode sample-hold
attr recordingmode vector
vector 160 vehicularMecTest.car[0].tcp.conn-207 rcvWnd:vector ETV
attr interpolationmode sample-hold
attr recordingmode vector
vector 161 vehicularMecTest.car[0].tcp.conn-207 sndAck:vector ETV
attr interpolationmode sample-hold
attr recordingmode vector
vector 162 vehicularMecTest.car[0].tcp.conn-208 tcpRcvQueueBytes:vector ETV
attr interpolationmode sample-hold
attr recordingmode vector
vector 163 vehicularMecTest.car[0].tcp.conn-208 rcvAdv:vector ETV
attr interpolationmode sample-hold
attr recordingmode vector
vector 164 vehicularMecTest.car[0].tcp.conn-208 rcvWnd:vector ETV
attr interpolationmode sample-hold
attr recordingmode vector
vector 165 vehicularMecTest.car[0].tcp.conn-208 sndAck:vector ETV
attr interpolationmode sample-hold
attr recordingmode vector
vector 166 vehicularMecTest.car[0].tcp.conn-209 tcpRcvQueueBytes:vector ETV
attr interpolationmode sample-hold
attr recordingmode vector
vector 167 vehicularMecTest.car[0].tcp.conn-209 rcvAdv:vector ETV
attr interpolationmode sample-hold
attr recordingmode vector
vector 168 vehicularMecTest.car[0].tcp.conn-209 rcvWnd:vector ETV
attr interpolationmode sample-hold
attr recordingmode vector
vector 169 vehicularMecTest.car[0].tcp.conn-209 sndAck:vector ETV
attr interpolationmode sample-hold
attr recordingmode vector
vector 170 vehicularMecTest.car[1].tcp.conn-210 tcpRcvQueueBytes:vector ETV
attr interpolationmode sample-hold
attr recordingmode vector
vector 171 vehicularMecTest.car[1].tcp.conn-210 rcvAdv:vector ETV
attr interpolationmode sample-hold
attr recordingmode vector
vector 172 vehicularMecTest.car[1].tcp.conn-210 rcvWnd:vector ETV
attr interpolationmode sample-hold
attr recordingmode vector
vector 173 vehicularMecTest.car[1].tcp.conn-210 sndAck:vector ETV
attr interpolationmode sample-hold
attr recordingmode vector
vector 174 vehicularMecTest.car[1].tcp.conn-211 tcpRcvQueueBytes:vector ETV
attr interpolationmode sample-hold
attr recordingmode vector
vector 175 vehicularMecTest.car[1].tcp.conn-211 rcvAdv:vector ETV
attr interpolationmode sample-hold
attr recordingmode vector
vector 176 vehicularMecTest.car[1].tcp.conn-211 rcvWnd:vector ETV
attr interpolationmode sample-hold
attr recordingmode vector
vector 177 vehicularMecTest.car[1].tcp.conn-211 sndAck:vector ETV
attr interpolationmode sample-hold
attr recordingmode vector
vector 178 vehicularMecTest.car[1].tcp.conn-212 tcpRcvQueueBytes:vector ETV
attr interpolationmode sample-hold
attr recordingmode vector
vector 179 vehicularMecTest.car[1].tcp.conn-212 rcvAdv:vector ETV
attr interpolationmode sample-hold
attr recordingmode vector
vector 180 vehicularMecTest.car[1].tcp.conn-212 rcvWnd:vector ETV
attr interpolationmode sample-hold
attr recordingmode vector
vector 181 vehicularMecTest.car[1].tcp.conn-212 sndAck:vector ETV
attr interpolationmode sample-hold
attr recordingmode vector
vector 182 vehicularMecTest.car[2].tcp.conn-213 tcpRcvQueueBytes:vector ETV
attr interpolationmode sample-hold
attr recordingmode vector
vector 183 vehicularMecTest.car[2].tcp.conn-213 rcvAdv:vector ETV
attr interpolationmode sample-hold
attr recordingmode vector
vector 184 vehicularMecTest.car[2].tcp.conn-213 rcvWnd:vector ETV
attr interpolationmode sample-hold
attr recordingmode vector
vector 185 vehicularMecTest.car[2].tcp.conn-213 sndAck:vector ETV
attr interpolationmode sample-hold
attr recordingmode vector
vector 186 vehicularMecTest.car[2].tcp.conn-214 tcpRcvQueueBytes:vector ETV
attr interpolationmode sample-hold
attr recordingmode vector
vector 187 vehicularMecTest.car[2].tcp.conn-214 rcvAdv:vector ETV
attr interpolationmode sample-hold
attr recordingmode vector
vector 188 vehicularMecTest.car[2].tcp.conn-214 rcvWnd:vector ETV
attr interpolationmode sample-hold
attr recordingmode vector
vector 189 vehicularMecTest.car[2].tcp.conn-214 sndAck:vector ETV
attr interpolationmode sample-hold
attr recordingmode vector
vector 190 vehicularMecTest.car[2].tcp.conn-215 tcpRcvQueueBytes:vector ETV
attr interpolationmode sample-hold
attr recordingmode vector
vector 191 vehicularMecTest.car[2].tcp.conn-215 rcvAdv:vector ETV
attr interpolationmode sample-hold
attr recordingmode vector
vector 192 vehicularMecTest.car[2].tcp.conn-215 rcvWnd:vector ETV
attr interpolationmode sample-hold
attr recordingmode vector
vector 193 vehicularMecTest.car[2].tcp.conn-215 sndAck:vector ETV
attr interpolationmode sample-hold
attr recordingmode vector
vector 194 vehicularMecTest.car[3].tcp.conn-216 tcpRcvQueueBytes:vector ETV
attr interpolationmode sample-hold
attr recordingmode vector
vector 195 vehicularMecTest.car[3].tcp.conn-216 rcvAdv:vector ETV
attr interpolationmode sample-hold
attr recordingmode vector
vector 196 vehicularMecTest.car[3].tcp.conn-216 rcvWnd:vector ETV
attr interpolationmode sample-hold
attr recordingmode vector
vector 197 vehicularMecTest.car[3].tcp.conn-216 sndAck:vector ETV
attr interpolationmode sample-hold
attr recordingmode vector
vector 198 vehicularMecTest.car[3].tcp.conn-217 tcpRcvQueueBytes:vector ETV
attr interpolationmode sample-hold
attr recordingmode vector
vector 199 vehicularMecTest.car[3].tcp.conn-217 rcvAdv:vector ETV
attr interpolationmode sample-hold
attr recordingmode vector
vector 200 vehicularMecTest.car[3].tcp.conn-217 rcvWnd:vector ETV
attr interpolationmode sample-hold
attr recordingmode vector
vector 201 vehicularMecTest.car[3].tcp.conn-217 sndAck:vector ETV
attr interpolationmode sample-hold
attr recordingmode vector
vector 202 vehicularMecTest.car[3].tcp.conn-218 tcpRcvQueueBytes:vector ETV
attr interpolationmode sample-hold
attr recordingmode vector
vector 203 vehicularMecTest.car[3].tcp.conn-218 rcvAdv:vector ETV
attr interpolationmode sample-hold
attr recordingmode vector
vector 204 vehicularMecTest.car[3].tcp.conn-218 rcvWnd:vector ETV
attr interpolationmode sample-hold
attr recordingmode vector
vector 205 vehicularMecTest.car[3].tcp.conn-218 sndAck:vector ETV
attr interpolationmode sample-hold
attr recordingmode vector
vector 206 vehicularMecTest.car[4].tcp.conn-219 tcpRcvQueueBytes:vector ETV
attr interpolationmode sample-hold
attr recordingmode vector
vector 207 vehicularMecTest.car[4].tcp.conn-219 rcvAdv:vector ETV
attr interpolationmode sample-hold
attr recordingmode vector
vector 208 vehicularMecTest.car[4].tcp.conn-219 rcvWnd:vector ETV
attr interpolationmode sample-hold
attr recordingmode vector
vector 209 vehicularMecTest.car[4].tcp.conn-219 sndAck:vector ETV
attr interpolationmode sample-hold
attr recordingmode vector
vector 210 vehicularMecTest.car[4].tcp.conn-220 tcpRcvQueueBytes:vector ETV
attr interpolationmode sample-hold
attr recordingmode vector
vector 211 vehicularMecTest.car[4].tcp.conn-220 rcvAdv:vector ETV
attr interpolationmode sample-hold
attr recordingmode vector
vector 212 vehicularMecTest.car[4].tcp.conn-220 rcvWnd:vector ETV
attr interpolationmode sample-hold
attr recordingmode vector
vector 213 vehicularMecTest.car[4].tcp.conn-220 sndAck:vector ETV
attr interpolationmode sample-hold
attr recordingmode vector
vector 214 vehicularMecTest.car[4].tcp.conn-221 tcpRcvQueueBytes:vector ETV
attr interpolationmode sample-hold
attr recordingmode vector
vector 215 vehicularMecTest.car[4].tcp.conn-221 rcvAdv:vector ETV
attr interpolationmode sample-hold
attr recordingmode vector
vector 216 vehicularMecTest.car[4].tcp.conn-221 rcvWnd:vector ETV
attr interpolationmode sample-hold
attr recordingmode vector
vector 217 vehicularMecTest.car[4].tcp.conn-221 sndAck:vector ETV
attr interpolationmode sample-hold
attr recordingmode vector
vector 218 vehicularMecTest.car[5].tcp.conn-222 tcpRcvQueueBytes:vector ETV
attr interpolationmode sample-hold
attr recordingmode vector
vector 219 vehicularMecTest.car[5].tcp.conn-222 rcvAdv:vector ETV
attr interpolationmode sample-hold
attr recordingmode vector
vector 220 vehicularMecTest.car[5].tcp.conn-222 rcvWnd:vector ETV
attr interpolationmode sample-hold
attr recordingmode vector
vector 221 vehicularMecTest.car[5].tcp.conn-222 sndAck:vector ETV
attr interpolationmode sample-hold
attr recordingmode vector
vector 222 vehicularMecTest.car[5].tcp.conn-223 tcpRcvQueueBytes:vector ETV
attr interpolationmode sample-hold
attr recordingmode vector
vector 223 vehicularMecTest.car[5].tcp.conn-223 rcvAdv:vector ETV
attr interpolationmode sample-hold
attr recordingmode vector
vector 224 vehicularMecTest.car[5].tcp.conn-223 rcvWnd:vector ETV
attr interpolationmode sample-hold
attr recordingmode vector
vector 225 vehicularMecTest.car[5].tcp.conn-223 sndAck:vector ETV
attr interpolationmode sample-hold
attr recordingmode vector
vector 226 vehicularMecTest.car[5].tcp.conn-224 tcpRcvQueueBytes:vector ETV
attr interpolationmode sample-hold
attr recordingmode vector
vector 227 vehicularMecTest.car[5].tcp.conn-224 rcvAdv:vector ETV
attr interpolationmode sample-hold
attr recordingmode vector
vector 228 vehicularMecTest.car[5].tcp.conn-224 rcvWnd:vector ETV
attr interpolationmode sample-hold
attr recordingmode vector
vector 229 vehicularMecTest.car[5].tcp.conn-224 sndAck:vector ETV
attr interpolationmode sample-hold
attr recordingmode vector
vector 230 vehicularMecTest.car[6].tcp.conn-225 tcpRcvQueueBytes:vector ETV
attr interpolationmode sample-hold
attr recordingmode vector
vector 231 vehicularMecTest.car[6].tcp.conn-225 rcvAdv:vector ETV
attr interpolationmode sample-hold
attr recordingmode vector
vector 232 vehicularMecTest.car[6].tcp.conn-225 rcvWnd:vector ETV
attr interpolationmode sample-hold
attr recordingmode vector
vector 233 vehicularMecTest.car[6].tcp.conn-225 sndAck:vector ETV
attr interpolationmode sample-hold
attr recordingmode vector
vector 234 vehicularMecTest.car[6].tcp.conn-226 tcpRcvQueueBytes:vector ETV
attr interpolationmode sample-hold
attr recordingmode vector
vector 235 vehicularMecTest.car[6].tcp.conn-226 rcvAdv:vector ETV
attr interpolationmode sample-hold
attr recordingmode vector
vector 236 vehicularMecTest.car[6].tcp.conn-226 rcvWnd:vector ETV
attr interpolationmode sample-hold
attr recordingmode vector
vector 237 vehicularMecTest.car[6].tcp.conn-226 sndAck:vector ETV
attr interpolationmode sample-hold
attr recordingmode vector
vector 238 vehicularMecTest.car[6].tcp.conn-227 tcpRcvQueueBytes:vector ETV
attr interpolationmode sample-hold
attr recordingmode vector
vector 239 vehicularMecTest.car[6].tcp.conn-227 rcvAdv:vector ETV
attr interpolationmode sample-hold
attr recordingmode vector
vector 240 vehicularMecTest.car[6].tcp.conn-227 rcvWnd:vector ETV
attr interpolationmode sample-hold
attr recordingmode vector
vector 241 vehicularMecTest.car[6].tcp.conn-227 sndAck:vector ETV
attr interpolationmode sample-hold
attr recordingmode vector
vector 242 vehicularMecTest.car[7].tcp.conn-228 tcpRcvQueueBytes:vector ETV
attr interpolationmode sample-hold
attr recordingmode vector
vector 243 vehicularMecTest.car[7].tcp.conn-228 rcvAdv:vector ETV
attr interpolationmode sample-hold
attr recordingmode vector
vector 244 vehicularMecTest.car[7].tcp.conn-228 rcvWnd:vector ETV
attr interpolationmode sample-hold
attr recordingmode vector
vector 245 vehicularMecTest.car[7].tcp.conn-228 sndAck:vector ETV
attr interpolationmode sample-hold
attr recordingmode vector
vector 246 vehicularMecTest.car[7].tcp.conn-229 tcpRcvQueueBytes:vector ETV
attr interpolationmode sample-hold
attr recordingmode vector
vector 247 vehicularMecTest.car[7].tcp.conn-229 rcvAdv:vector ETV
attr interpolationmode sample-hold
attr recordingmode vector
vector 248 vehicularMecTest.car[7].tcp.conn-229 rcvWnd:vector ETV
attr interpolationmode sample-hold
attr recordingmode vector
vector 249 vehicularMecTest.car[7].tcp.conn-229 sndAck:vector ETV
attr interpolationmode sample-hold
attr recordingmode vector
vector 250 vehicularMecTest.car[7].tcp.conn-230 tcpRcvQueueBytes:vector ETV
attr interpolationmode sample-hold
attr recordingmode vector
vector 251 vehicularMecTest.car[7].tcp.conn-230 rcvAdv:vector ETV
attr interpolationmode sample-hold
attr recordingmode vector
vector 252 vehicularMecTest.car[7].tcp.conn-230 rcvWnd:vector ETV
attr interpolationmode sample-hold
attr recordingmode vector
vector 253 vehicularMecTest.car[7].tcp.conn-230 sndAck:vector ETV
attr interpolationmode sample-hold
attr recordingmode vector
vector 254 vehicularMecTest.car[8].tcp.conn-231 tcpRcvQueueBytes:vector ETV
attr interpolationmode sample-hold
attr recordingmode vector
vector 255 vehicularMecTest.car[8].tcp.conn-231 rcvAdv:vector ETV
attr interpolationmode sample-hold
attr recordingmode vector
vector 256 vehicularMecTest.car[8].tcp.conn-231 rcvWnd:vector ETV
attr interpolationmode sample-hold
attr recordingmode vector
vector 257 vehicularMecTest.car[8].tcp.conn-231 sndAck:vector ETV
attr interpolationmode sample-hold
attr recordingmode vector
vector 258 vehicularMecTest.car[8].tcp.conn-232 tcpRcvQueueBytes:vector ETV
attr interpolationmode sample-hold
attr recordingmode vector
vector 259 vehicularMecTest.car[8].tcp.conn-232 rcvAdv:vector ETV
attr interpolationmode sample-hold
attr recordingmode vector
vector 260 vehicularMecTest.car[8].tcp.conn-232 rcvWnd:vector ETV
attr interpolationmode sample-hold
attr recordingmode vector
vector 261 vehicularMecTest.car[8].tcp.conn-232 sndAck:vector ETV
attr interpolationmode sample-hold
attr recordingmode vector
vector 262 vehicularMecTest.car[8].tcp.conn-233 tcpRcvQueueBytes:vector ETV
attr interpolationmode sample-hold
attr recordingmode vector
vector 263 vehicularMecTest.car[8].tcp.conn-233 rcvAdv:vector ETV
attr interpolationmode sample-hold
attr recordingmode vector
vector 264 vehicularMecTest.car[8].tcp.conn-233 rcvWnd:vector ETV
attr interpolationmode sample-hold
attr recordingmode vector
vector 265 vehicularMecTest.car[8].tcp.conn-233 sndAck:vector ETV
attr interpolationmode sample-hold
attr recordingmode vector
vector 266 vehicularMecTest.car[9].tcp.conn-234 tcpRcvQueueBytes:vector ETV
attr interpolationmode sample-hold
attr recordingmode vector
vector 267 vehicularMecTest.car[9].tcp.conn-234 rcvAdv:vector ETV
attr interpolationmode sample-hold
attr recordingmode vector
vector 268 vehicularMecTest.car[9].tcp.conn-234 rcvWnd:vector ETV
attr interpolationmode sample-hold
attr recordingmode vector
vector 269 vehicularMecTest.car[9].tcp.conn-234 sndAck:vector ETV
attr interpolationmode sample-hold
attr recordingmode vector
vector 270 vehicularMecTest.car[9].tcp.conn-235 tcpRcvQueueBytes:vector ETV
attr interpolationmode sample-hold
attr recordingmode vector
vector 271 vehicularMecTest.car[9].tcp.conn-235 rcvAdv:vector ETV
attr interpolationmode sample-hold
attr recordingmode vector
vector 272 vehicularMecTest.car[9].tcp.conn-235 rcvWnd:vector ETV
attr interpolationmode sample-hold
attr recordingmode vector
vector 273 vehicularMecTest.car[9].tcp.conn-235 sndAck:vector ETV
attr interpolationmode sample-hold
attr recordingmode vector
vector 274 vehicularMecTest.car[9].tcp.conn-236 tcpRcvQueueBytes:vector ETV
attr interpolationmode sample-hold
attr recordingmode vector
vector 275 vehicularMecTest.car[9].tcp.conn-236 rcvAdv:vector ETV
attr interpolationmode sample-hold
attr recordingmode vector
vector 276 vehicularMecTest.car[9].tcp.conn-236 rcvWnd:vector ETV
attr interpolationmode sample-hold
attr recordingmode vector
vector 277 vehicularMecTest.car[9].tcp.conn-236 sndAck:vector ETV
attr interpolationmode sample-hold
attr recordingmode vector
vector 278 vehicularMecTest.car[10].tcp.conn-237 tcpRcvQueueBytes:vector ETV
attr interpolationmode sample-hold
attr recordingmode vector
vector 279 vehicularMecTest.car[10].tcp.conn-237 rcvAdv:vector ETV
attr interpolationmode sample-hold
attr recordingmode vector
vector 280 vehicularMecTest.car[10].tcp.conn-237 rcvWnd:vector ETV
attr interpolationmode sample-hold
attr recordingmode vector
vector 281 vehicularMecTest.car[10].tcp.conn-237 sndAck:vector ETV
attr interpolationmode sample-hold
attr recordingmode vector
vector 282 vehicularMecTest.car[10].tcp.conn-238 tcpRcvQueueBytes:vector ETV
attr interpolationmode sample-hold
attr recordingmode vector
vector 283 vehicularMecTest.car[10].tcp.conn-238 rcvAdv:vector ETV
attr interpolationmode sample-hold
attr recordingmode vector
vector 284 vehicularMecTest.car[10].tcp.conn-238 rcvWnd:vector ETV
attr interpolationmode sample-hold
attr recordingmode vector
vector 285 vehicularMecTest.car[10].tcp.conn-238 sndAck:vector ETV
attr interpolationmode sample-hold
attr recordingmode vector
vector 286 vehicularMecTest.car[10].tcp.conn-239 tcpRcvQueueBytes:vector ETV
attr interpolationmode sample-hold
attr recordingmode vector
vector 287 vehicularMecTest.car[10].tcp.conn-239 rcvAdv:vector ETV
attr interpolationmode sample-hold
attr recordingmode vector
vector 288 vehicularMecTest.car[10].tcp.conn-239 rcvWnd:vector ETV
attr interpolationmode sample-hold
attr recordingmode vector
vector 289 vehicularMecTest.car[10].tcp.conn-239 sndAck:vector ETV
attr interpolationmode sample-hold
attr recordingmode vector
vector 290 vehicularMecTest.car[11].tcp.conn-240 tcpRcvQueueBytes:vector ETV
attr interpolationmode sample-hold
attr recordingmode vector
vector 291 vehicularMecTest.car[11].tcp.conn-240 rcvAdv:vector ETV
attr interpolationmode sample-hold
attr recordingmode vector
vector 292 vehicularMecTest.car[11].tcp.conn-240 rcvWnd:vector ETV
attr interpolationmode sample-hold
attr recordingmode vector
vector 293 vehicularMecTest.car[11].tcp.conn-240 sndAck:vector ETV
attr interpolationmode sample-hold
attr recordingmode vector
vector 294 vehicularMecTest.car[11].tcp.conn-241 tcpRcvQueueBytes:vector ETV
attr interpolationmode sample-hold
attr recordingmode vector
vector 295 vehicularMecTest.car[11].tcp.conn-241 rcvAdv:vector ETV
attr interpolationmode sample-hold
attr recordingmode vector
vector 296 vehicularMecTest.car[11].tcp.conn-241 rcvWnd:vector ETV
attr interpolationmode sample-hold
attr recordingmode vector
vector 297 vehicularMecTest.car[11].tcp.conn-241 sndAck:vector ETV
attr interpolationmode sample-hold
attr recordingmode vector
vector 298 vehicularMecTest.car[11].tcp.conn-242 tcpRcvQueueBytes:vector ETV
attr interpolationmode sample-hold
attr recordingmode vector
vector 299 vehicularMecTest.car[11].tcp.conn-242 rcvAdv:vector ETV
attr interpolationmode sample-hold
attr recordingmode vector
vector 300 vehicularMecTest.car[11].tcp.conn-242 rcvWnd:vector ETV
attr interpolationmode sample-hold
attr recordingmode vector
vector 301 vehicularMecTest.car[11].tcp.conn-242 sndAck:vector ETV
attr interpolationmode sample-hold
attr recordingmode vector
vector 302 vehicularMecTest.car[12].tcp.conn-243 tcpRcvQueueBytes:vector ETV
attr interpolationmode sample-hold
attr recordingmode vector
vector 303 vehicularMecTest.car[12].tcp.conn-243 rcvAdv:vector ETV
attr interpolationmode sample-hold
attr recordingmode vector
vector 304 vehicularMecTest.car[12].tcp.conn-243 rcvWnd:vector ETV
attr interpolationmode sample-hold
attr recordingmode vector
vector 305 vehicularMecTest.car[12].tcp.conn-243 sndAck:vector ETV
attr interpolationmode sample-hold
attr recordingmode vector
vector 306 vehicularMecTest.car[12].tcp.conn-244 tcpRcvQueueBytes:vector ETV
attr interpolationmode sample-hold
attr recordingmode vector
vector 307 vehicularMecTest.car[12].tcp.conn-244 rcvAdv:vector ETV
attr interpolationmode sample-hold
attr recordingmode vector
vector 308 vehicularMecTest.car[12].tcp.conn-244 rcvWnd:vector ETV
attr interpolationmode sample-hold
attr recordingmode vector
vector 309 vehicularMecTest.car[12].tcp.conn-244 sndAck:vector ETV
attr interpolationmode sample-hold
attr recordingmode vector
vector 310 vehicularMecTest.car[12].tcp.conn-245 tcpRcvQueueBytes:vector ETV
attr interpolationmode sample-hold
attr recordingmode vector
vector 311 vehicularMecTest.car[12].tcp.conn-245 rcvAdv:vector ETV
attr interpolationmode sample-hold
attr recordingmode vector
vector 312 vehicularMecTest.car[12].tcp.conn-245 rcvWnd:vector ETV
attr interpolationmode sample-hold
attr recordingmode vector
vector 313 vehicularMecTest.car[12].tcp.conn-245 sndAck:vector ETV
attr interpolationmode sample-hold
attr recordingmode vector
vector 314 vehicularMecTest.car[13].tcp.conn-246 tcpRcvQueueBytes:vector ETV
attr interpolationmode sample-hold
attr recordingmode vector
vector 315 vehicularMecTest.car[13].tcp.conn-246 rcvAdv:vector ETV
attr interpolationmode sample-hold
attr recordingmode vector
vector 316 vehicularMecTest.car[13].tcp.conn-246 rcvWnd:vector ETV
attr interpolationmode sample-hold
attr recordingmode vector
vector 317 vehicularMecTest.car[13].tcp.conn-246 sndAck:vector ETV
attr interpolationmode sample-hold
attr recordingmode vector
vector 318 vehicularMecTest.car[13].tcp.conn-247 tcpRcvQueueBytes:vector ETV
attr interpolationmode sample-hold
attr recordingmode vector
vector 319 vehicularMecTest.car[13].tcp.conn-247 rcvAdv:vector ETV
attr interpolationmode sample-hold
attr recordingmode vector
vector 320 vehicularMecTest.car[13].tcp.conn-247 rcvWnd:vector ETV
attr interpolationmode sample-hold
attr recordingmode vector
vector 321 vehicularMecTest.car[13].tcp.conn-247 sndAck:vector ETV
attr interpolationmode sample-hold
attr recordingmode vector
vector 322 vehicularMecTest.car[13].tcp.conn-248 tcpRcvQueueBytes:vector ETV
attr interpolationmode sample-hold
attr recordingmode vector
vector 323 vehicularMecTest.car[13].tcp.conn-248 rcvAdv:vector ETV
attr interpolationmode sample-hold
attr recordingmode vector
vector 324 vehicularMecTest.car[13].tcp.conn-248 rcvWnd:vector ETV
attr interpolationmode sample-hold
attr recordingmode vector
vector 325 vehicularMecTest.car[13].tcp.conn-248 sndAck:vector ETV
attr interpolationmode sample-hold
attr recordingmode vector
vector 326 vehicularMecTest.car[14].tcp.conn-249 tcpRcvQueueBytes:vector ETV
attr interpolationmode sample-hold
attr recordingmode vector
vector 327 vehicularMecTest.car[14].tcp.conn-249 rcvAdv:vector ETV
attr interpolationmode sample-hold
attr recordingmode vector
vector 328 vehicularMecTest.car[14].tcp.conn-249 rcvWnd:vector ETV
attr interpolationmode sample-hold
attr recordingmode vector
vector 329 vehicularMecTest.car[14].tcp.conn-249 sndAck:vector ETV
attr interpolationmode sample-hold
attr recordingmode vector
vector 330 vehicularMecTest.car[14].tcp.conn-250 tcpRcvQueueBytes:vector ETV
attr interpolationmode sample-hold
attr recordingmode vector
vector 331 vehicularMecTest.car[14].tcp.conn-250 rcvAdv:vector ETV
attr interpolationmode sample-hold
attr recordingmode vector
vector 332 vehicularMecTest.car[14].tcp.conn-250 rcvWnd:vector ETV
attr interpolationmode sample-hold
attr recordingmode vector
vector 333 vehicularMecTest.car[14].tcp.conn-250 sndAck:vector ETV
attr interpolationmode sample-hold
attr recordingmode vector
vector 334 vehicularMecTest.car[14].tcp.conn-251 tcpRcvQueueBytes:vector ETV
attr interpolationmode sample-hold
attr recordingmode vector
vector 335 vehicularMecTest.car[14].tcp.conn-251 rcvAdv:vector ETV
attr interpolationmode sample-hold
attr recordingmode vector
vector 336 vehicularMecTest.car[14].tcp.conn-251 rcvWnd:vector ETV
attr interpolationmode sample-hold
attr recordingmode vector
vector 337 vehicularMecTest.car[14].tcp.conn-251 sndAck:vector ETV
attr interpolationmode sample-hold
attr recordingmode vector
vector 338 vehicularMecTest.car[15].tcp.conn-252 tcpRcvQueueBytes:vector ETV
attr interpolationmode sample-hold
attr recordingmode vector
vector 339 vehicularMecTest.car[15].tcp.conn-252 rcvAdv:vector ETV
attr interpolationmode sample-hold
attr recordingmode vector
vector 340 vehicularMecTest.car[15].tcp.conn-252 rcvWnd:vector ETV
attr interpolationmode sample-hold
attr recordingmode vector
vector 341 vehicularMecTest.car[15].tcp.conn-252 sndAck:vector ETV
attr interpolationmode sample-hold
attr recordingmode vector
vector 342 vehicularMecTest.car[15].tcp.conn-253 tcpRcvQueueBytes:vector ETV
attr interpolationmode sample-hold
attr recordingmode vector
vector 343 vehicularMecTest.car[15].tcp.conn-253 rcvAdv:vector ETV
attr interpolationmode sample-hold
attr recordingmode vector
vector 344 vehicularMecTest.car[15].tcp.conn-253 rcvWnd:vector ETV
attr interpolationmode sample-hold
attr recordingmode vector
vector 345 vehicularMecTest.car[15].tcp.conn-253 sndAck:vector ETV
attr interpolationmode sample-hold
attr recordingmode vector
vector 346 vehicularMecTest.car[15].tcp.conn-254 tcpRcvQueueBytes:vector ETV
attr interpolationmode sample-hold
attr recordingmode vector
vector 347 vehicularMecTest.car[15].tcp.conn-254 rcvAdv:vector ETV
attr interpolationmode sample-hold
attr recordingmode vector
vector 348 vehicularMecTest.car[15].tcp.conn-254 rcvWnd:vector ETV
attr interpolationmode sample-hold
attr recordingmode vector
vector 349 vehicularMecTest.car[15].tcp.conn-254 sndAck:vector ETV
attr interpolationmode sample-hold
attr recordingmode vector
vector 350 vehicularMecTest.car[16].tcp.conn-255 tcpRcvQueueBytes:vector ETV
attr interpolationmode sample-hold
attr recordingmode vector
vector 351 vehicularMecTest.car[16].tcp.conn-255 rcvAdv:vector ETV
attr interpolationmode sample-hold
attr recordingmode vector
vector 352 vehicularMecTest.car[16].tcp.conn-255 rcvWnd:vector ETV
attr interpolationmode sample-hold
attr recordingmode vector
vector 353 vehicularMecTest.car[16].tcp.conn-255 sndAck:vector ETV
attr interpolationmode sample-hold
attr recordingmode vector
vector 354 vehicularMecTest.car[16].tcp.conn-256 tcpRcvQueueBytes:vector ETV
attr interpolationmode sample-hold
attr recordingmode vector
vector 355 vehicularMecTest.car[16].tcp.conn-256 rcvAdv:vector ETV
attr interpolationmode sample-hold
attr recordingmode vector
vector 356 vehicularMecTest.car[16].tcp.conn-256 rcvWnd:vector ETV
attr interpolationmode sample-hold
attr recordingmode vector
vector 357 vehicularMecTest.car[16].tcp.conn-256 sndAck:vector ETV
attr interpolationmode sample-hold
attr recordingmode vector
vector 358 vehicularMecTest.car[16].tcp.conn-257 tcpRcvQueueBytes:vector ETV
attr interpolationmode sample-hold
attr recordingmode vector
vector 359 vehicularMecTest.car[16].tcp.conn-257 rcvAdv:vector ETV
attr interpolationmode sample-hold
attr recordingmode vector
vector 360 vehicularMecTest.car[16].tcp.conn-257 rcvWnd:vector ETV
attr interpolationmode sample-hold
attr recordingmode vector
vector 361 vehicularMecTest.car[16].tcp.conn-257 sndAck:vector ETV
attr interpolationmode sample-hold
attr recordingmode vector
vector 362 vehicularMecTest.car[17].tcp.conn-258 tcpRcvQueueBytes:vector ETV
attr interpolationmode sample-hold
attr recordingmode vector
vector 363 vehicularMecTest.car[17].tcp.conn-258 rcvAdv:vector ETV
attr interpolationmode sample-hold
attr recordingmode vector
vector 364 vehicularMecTest.car[17].tcp.conn-258 rcvWnd:vector ETV
attr interpolationmode sample-hold
attr recordingmode vector
vector 365 vehicularMecTest.car[17].tcp.conn-258 sndAck:vector ETV
attr interpolationmode sample-hold
attr recordingmode vector
vector 366 vehicularMecTest.car[17].tcp.conn-259 tcpRcvQueueBytes:vector ETV
attr interpolationmode sample-hold
attr recordingmode vector
vector 367 vehicularMecTest.car[17].tcp.conn-259 rcvAdv:vector ETV
attr interpolationmode sample-hold
attr recordingmode vector
vector 368 vehicularMecTest.car[17].tcp.conn-259 rcvWnd:vector ETV
attr interpolationmode sample-hold
attr recordingmode vector
vector 369 vehicularMecTest.car[17].tcp.conn-259 sndAck:vector ETV
attr interpolationmode sample-hold
attr recordingmode vector
vector 370 vehicularMecTest.car[17].tcp.conn-260 tcpRcvQueueBytes:vector ETV
attr interpolationmode sample-hold
attr recordingmode vector
vector 371 vehicularMecTest.car[17].tcp.conn-260 rcvAdv:vector ETV
attr interpolationmode sample-hold
attr recordingmode vector
vector 372 vehicularMecTest.car[17].tcp.conn-260 rcvWnd:vector ETV
attr interpolationmode sample-hold
attr recordingmode vector
vector 373 vehicularMecTest.car[17].tcp.conn-260 sndAck:vector ETV
attr interpolationmode sample-hold
attr recordingmode vector
vector 374 vehicularMecTest.car[18].tcp.conn-261 tcpRcvQueueBytes:vector ETV
attr interpolationmode sample-hold
attr recordingmode vector
vector 375 vehicularMecTest.car[18].tcp.conn-261 rcvAdv:vector ETV
attr interpolationmode sample-hold
attr recordingmode vector
vector 376 vehicularMecTest.car[18].tcp.conn-261 rcvWnd:vector ETV
attr interpolationmode sample-hold
attr recordingmode vector
vector 377 vehicularMecTest.car[18].tcp.conn-261 sndAck:vector ETV
attr interpolationmode sample-hold
attr recordingmode vector
vector 378 vehicularMecTest.car[18].tcp.conn-262 tcpRcvQueueBytes:vector ETV
attr interpolationmode sample-hold
attr recordingmode vector
vector 379 vehicularMecTest.car[18].tcp.conn-262 rcvAdv:vector ETV
attr interpolationmode sample-hold
attr recordingmode vector
vector 380 vehicularMecTest.car[18].tcp.conn-262 rcvWnd:vector ETV
attr interpolationmode sample-hold
attr recordingmode vector
vector 381 vehicularMecTest.car[18].tcp.conn-262 sndAck:vector ETV
attr interpolationmode sample-hold
attr recordingmode vector
vector 382 vehicularMecTest.car[18].tcp.conn-263 tcpRcvQueueBytes:vector ETV
attr interpolationmode sample-hold
attr recordingmode vector
vector 383 vehicularMecTest.car[18].tcp.conn-263 rcvAdv:vector ETV
attr interpolationmode sample-hold
attr recordingmode vector
vector 384 vehicularMecTest.car[18].tcp.conn-263 rcvWnd:vector ETV
attr interpolationmode sample-hold
attr recordingmode vector
vector 385 vehicularMecTest.car[18].tcp.conn-263 sndAck:vector ETV
attr interpolationmode sample-hold
attr recordingmode vector
vector 386 vehicularMecTest.car[0].cellularNic.pdcpRrc receivedPacketFromUpperLayer:vector(packetBytes) ETV
attr interpolationmode none
attr recordingmode vector(packetBytes)
attr source receivedPacketFromUpperLayer
vector 387 vehicularMecTest.car[0].cellularNic.pdcpRrc sentPacketToLowerLayer:vector(packetBytes) ETV
attr interpolationmode none
attr recordingmode vector(packetBytes)
attr source sentPacketToLowerLayer
vector 388 vehicularMecTest.car[1].cellularNic.pdcpRrc receivedPacketFromUpperLayer:vector(packetBytes) ETV
attr interpolationmode none
attr recordingmode vector(packetBytes)
attr source receivedPacketFromUpperLayer
vector 389 vehicularMecTest.car[1].cellularNic.pdcpRrc sentPacketToLowerLayer:vector(packetBytes) ETV
attr interpolationmode none
attr recordingmode vector(packetBytes)
attr source sentPacketToLowerLayer
vector 390 vehicularMecTest.car[2].cellularNic.pdcpRrc receivedPacketFromUpperLayer:vector(packetBytes) ETV
attr interpolationmode none
attr recordingmode vector(packetBytes)
attr source receivedPacketFromUpperLayer
vector 391 vehicularMecTest.car[2].cellularNic.pdcpRrc sentPacketToLowerLayer:vector(packetBytes) ETV
attr interpolationmode none
attr recordingmode vector(packetBytes)
attr source sentPacketToLowerLayer
vector 392 vehicularMecTest.car[3].cellularNic.pdcpRrc receivedPacketFromUpperLayer:vector(packetBytes) ETV
attr interpolationmode none
attr recordingmode vector(packetBytes)
attr source receivedPacketFromUpperLayer
vector 393 vehicularMecTest.car[3].cellularNic.pdcpRrc sentPacketToLowerLayer:vector(packetBytes) ETV
attr interpolationmode none
attr recordingmode vector(packetBytes)
attr source sentPacketToLowerLayer
vector 394 vehicularMecTest.car[4].cellularNic.pdcpRrc receivedPacketFromUpperLayer:vector(packetBytes) ETV
attr interpolationmode none
attr recordingmode vector(packetBytes)
attr source receivedPacketFromUpperLayer
vector 395 vehicularMecTest.car[4].cellularNic.pdcpRrc sentPacketToLowerLayer:vector(packetBytes) ETV
attr interpolationmode none
attr recordingmode vector(packetBytes)
attr source sentPacketToLowerLayer
vector 396 vehicularMecTest.car[5].cellularNic.pdcpRrc receivedPacketFromUpperLayer:vector(packetBytes) ETV
attr interpolationmode none
attr recordingmode vector(packetBytes)
attr source receivedPacketFromUpperLayer
vector 397 vehicularMecTest.car[5].cellularNic.pdcpRrc sentPacketToLowerLayer:vector(packetBytes) ETV
attr interpolationmode none
attr recordingmode vector(packetBytes)
attr source sentPacketToLowerLayer
vector 398 vehicularMecTest.car[6].cellularNic.pdcpRrc receivedPacketFromUpperLayer:vector(packetBytes) ETV
attr interpolationmode none
attr recordingmode vector(packetBytes)
attr source receivedPacketFromUpperLayer
vector 399 vehicularMecTest.car[6].cellularNic.pdcpRrc sentPacketToLowerLayer:vector(packetBytes) ETV
attr interpolationmode none
attr recordingmode vector(packetBytes)
attr source sentPacketToLowerLayer
vector 400 vehicularMecTest.car[7].cellularNic.pdcpRrc receivedPacketFromUpperLayer:vector(packetBytes) ETV
attr interpolationmode none
attr recordingmode vector(packetBytes)
attr source receivedPacketFromUpperLayer
vector 401 vehicularMecTest.car[7].cellularNic.pdcpRrc sentPacketToLowerLayer:vector(packetBytes) ETV
attr interpolationmode none
attr recordingmode vector(packetBytes)
attr source sentPacketToLowerLayer
vector 402 vehicularMecTest.car[8].cellularNic.pdcpRrc receivedPacketFromUpperLayer:vector(packetBytes) ETV
attr interpolationmode none
attr recordingmode vector(packetBytes)
attr source receivedPacketFromUpperLayer
vector 403 vehicularMecTest.car[8].cellularNic.pdcpRrc sentPacketToLowerLayer:vector(packetBytes) ETV
attr interpolationmode none
attr recordingmode vector(packetBytes)
attr source sentPacketToLowerLayer
vector 404 vehicularMecTest.car[9].cellularNic.pdcpRrc receivedPacketFromUpperLayer:vector(packetBytes) ETV
attr interpolationmode none
attr recordingmode vector(packetBytes)
attr source receivedPacketFromUpperLayer
vector 405 vehicularMecTest.car[9].cellularNic.pdcpRrc sentPacketToLowerLayer:vector(packetBytes) ETV
attr interpolationmode none
attr recordingmode vector(packetBytes)
attr source sentPacketToLowerLayer
vector 406 vehicularMecTest.car[10].cellularNic.pdcpRrc receivedPacketFromUpperLayer:vector(packetBytes) ETV
attr interpolationmode none
attr recordingmode vector(packetBytes)
attr source receivedPacketFromUpperLayer
vector 407 vehicularMecTest.car[10].cellularNic.pdcpRrc sentPacketToLowerLayer:vector(packetBytes) ETV
attr interpolationmode none
attr recordingmode vector(packetBytes)
attr source sentPacketToLowerLayer
vector 408 vehicularMecTest.car[11].cellularNic.pdcpRrc receivedPacketFromUpperLayer:vector(packetBytes) ETV
attr interpolationmode none
attr recordingmode vector(packetBytes)
attr source receivedPacketFromUpperLayer
vector 409 vehicularMecTest.car[11].cellularNic.pdcpRrc sentPacketToLowerLayer:vector(packetBytes) ETV
attr interpolationmode none
attr recordingmode vector(packetBytes)
attr source sentPacketToLowerLayer
vector 410 vehicularMecTest.car[12].cellularNic.pdcpRrc receivedPacketFromUpperLayer:vector(packetBytes) ETV
attr interpolationmode none
attr recordingmode vector(packetBytes)
attr source receivedPacketFromUpperLayer
vector 411 vehicularMecTest.car[12].cellularNic.pdcpRrc sentPacketToLowerLayer:vector(packetBytes) ETV
attr interpolationmode none
attr recordingmode vector(packetBytes)
attr source sentPacketToLowerLayer
vector 412 vehicularMecTest.car[13].cellularNic.pdcpRrc receivedPacketFromUpperLayer:vector(packetBytes) ETV
attr interpolationmode none
attr recordingmode vector(packetBytes)
attr source receivedPacketFromUpperLayer
vector 413 vehicularMecTest.car[13].cellularNic.pdcpRrc sentPacketToLowerLayer:vector(packetBytes) ETV
attr interpolationmode none
attr recordingmode vector(packetBytes)
attr source sentPacketToLowerLayer
vector 414 vehicularMecTest.car[14].cellularNic.pdcpRrc receivedPacketFromUpperLayer:vector(packetBytes) ETV
attr interpolationmode none
attr recordingmode vector(packetBytes)
attr source receivedPacketFromUpperLayer
vector 415 vehicularMecTest.car[14].cellularNic.pdcpRrc sentPacketToLowerLayer:vector(packetBytes) ETV
attr interpolationmode none
attr recordingmode vector(packetBytes)
attr source sentPacketToLowerLayer
vector 416 vehicularMecTest.car[15].cellularNic.pdcpRrc receivedPacketFromUpperLayer:vector(packetBytes) ETV
attr interpolationmode none
attr recordingmode vector(packetBytes)
attr source receivedPacketFromUpperLayer
vector 417 vehicularMecTest.car[15].cellularNic.pdcpRrc sentPacketToLowerLayer:vector(packetBytes) ETV
attr interpolationmode none
attr recordingmode vector(packetBytes)
attr source sentPacketToLowerLayer
vector 418 vehicularMecTest.car[16].cellularNic.pdcpRrc receivedPacketFromUpperLayer:vector(packetBytes) ETV
attr interpolationmode none
attr recordingmode vector(packetBytes)
attr source receivedPacketFromUpperLayer
vector 419 vehicularMecTest.car[16].cellularNic.pdcpRrc sentPacketToLowerLayer:vector(packetBytes) ETV
attr interpolationmode none
attr recordingmode vector(packetBytes)
attr source sentPacketToLowerLayer
vector 420 vehicularMecTest.car[17].cellularNic.pdcpRrc receivedPacketFromUpperLayer:vector(packetBytes) ETV
attr interpolationmode none
attr recordingmode vector(packetBytes)
attr source receivedPacketFromUpperLayer
vector 421 vehicularMecTest.car[17].cellularNic.pdcpRrc sentPacketToLowerLayer:vector(packetBytes) ETV
attr interpolationmode none
attr recordingmode vector(packetBytes)
attr source sentPacketToLowerLayer
vector 422 vehicularMecTest.car[18].cellularNic.pdcpRrc receivedPacketFromUpperLayer:vector(packetBytes) ETV
attr interpolationmode none
attr recordingmode vector(packetBytes)
attr source receivedPacketFromUpperLayer
vector 423 vehicularMecTest.car[18].cellularNic.pdcpRrc sentPacketToLowerLayer:vector(packetBytes) ETV
attr interpolationmode none
attr recordingmode vector(packetBytes)
attr source sentPacketToLowerLayer
vector 424 vehicularMecTest.car[0].cellularNic.nrRlc.um receivedPacketFromUpperLayer:vector(packetBytes) ETV
attr interpolationmode none
attr recordingmode vector(packetBytes)
attr source receivedPacketFromUpperLayer
vector 425 vehicularMecTest.car[1].cellularNic.nrRlc.um receivedPacketFromUpperLayer:vector(packetBytes) ETV
attr interpolationmode none
attr recordingmode vector(packetBytes)
attr source receivedPacketFromUpperLayer
vector 426 vehicularMecTest.car[2].cellularNic.nrRlc.um receivedPacketFromUpperLayer:vector(packetBytes) ETV
attr interpolationmode none
attr recordingmode vector(packetBytes)
attr source receivedPacketFromUpperLayer
vector 427 vehicularMecTest.car[3].cellularNic.nrRlc.um receivedPacketFromUpperLayer:vector(packetBytes) ETV
attr interpolationmode none
attr recordingmode vector(packetBytes)
attr source receivedPacketFromUpperLayer
vector 428 vehicularMecTest.car[4].cellularNic.nrRlc.um receivedPacketFromUpperLayer:vector(packetBytes) ETV
attr interpolationmode none
attr recordingmode vector(packetBytes)
attr source receivedPacketFromUpperLayer
vector 429 vehicularMecTest.car[5].cellularNic.nrRlc.um receivedPacketFromUpperLayer:vector(packetBytes) ETV
attr interpolationmode none
attr recordingmode vector(packetBytes)
attr source receivedPacketFromUpperLayer
vector 430 vehicularMecTest.car[6].cellularNic.nrRlc.um receivedPacketFromUpperLayer:vector(packetBytes) ETV
attr interpolationmode none
attr recordingmode vector(packetBytes)
attr source receivedPacketFromUpperLayer
vector 431 vehicularMecTest.car[7].cellularNic.nrRlc.um receivedPacketFromUpperLayer:vector(packetBytes) ETV
attr interpolationmode none
attr recordingmode vector(packetBytes)
attr source receivedPacketFromUpperLayer
vector 432 vehicularMecTest.car[8].cellularNic.nrRlc.um receivedPacketFromUpperLayer:vector(packetBytes) ETV
attr interpolationmode none
attr recordingmode vector(packetBytes)
attr source receivedPacketFromUpperLayer
vector 433 vehicularMecTest.car[9].cellularNic.nrRlc.um receivedPacketFromUpperLayer:vector(packetBytes) ETV
attr interpolationmode none
attr recordingmode vector(packetBytes)
attr source receivedPacketFromUpperLayer
vector 434 vehicularMecTest.car[10].cellularNic.nrRlc.um receivedPacketFromUpperLayer:vector(packetBytes) ETV
attr interpolationmode none
attr recordingmode vector(packetBytes)
attr source receivedPacketFromUpperLayer
vector 435 vehicularMecTest.car[11].cellularNic.nrRlc.um receivedPacketFromUpperLayer:vector(packetBytes) ETV
attr interpolationmode none
attr recordingmode vector(packetBytes)
attr source receivedPacketFromUpperLayer
vector 436 vehicularMecTest.car[12].cellularNic.nrRlc.um receivedPacketFromUpperLayer:vector(packetBytes) ETV
attr interpolationmode none
attr recordingmode vector(packetBytes)
attr source receivedPacketFromUpperLayer
vector 437 vehicularMecTest.car[13].cellularNic.nrRlc.um receivedPacketFromUpperLayer:vector(packetBytes) ETV
attr interpolationmode none
attr recordingmode vector(packetBytes)
attr source receivedPacketFromUpperLayer
vector 438 vehicularMecTest.car[14].cellularNic.nrRlc.um receivedPacketFromUpperLayer:vector(packetBytes) ETV
attr interpolationmode none
attr recordingmode vector(packetBytes)
attr source receivedPacketFromUpperLayer
vector 439 vehicularMecTest.car[15].cellularNic.nrRlc.um receivedPacketFromUpperLayer:vector(packetBytes) ETV
attr interpolationmode none
attr recordingmode vector(packetBytes)
attr source receivedPacketFromUpperLayer
vector 440 vehicularMecTest.car[16].cellularNic.nrRlc.um receivedPacketFromUpperLayer:vector(packetBytes) ETV
attr interpolationmode none
attr recordingmode vector(packetBytes)
attr source receivedPacketFromUpperLayer
vector 441 vehicularMecTest.car[17].cellularNic.nrRlc.um receivedPacketFromUpperLayer:vector(packetBytes) ETV
attr interpolationmode none
attr recordingmode vector(packetBytes)
attr source receivedPacketFromUpperLayer
vector 442 vehicularMecTest.car[18].cellularNic.nrRlc.um receivedPacketFromUpperLayer:vector(packetBytes) ETV
attr interpolationmode none
attr recordingmode vector(packetBytes)
attr source receivedPacketFromUpperLayer
vector 443 vehicularMecTest.car[0].cellularNic.nrMac receivedPacketFromUpperLayer:vector(packetBytes) ETV
attr interpolationmode none
attr recordingmode vector(packetBytes)
attr source receivedPacketFromUpperLayer
vector 444 vehicularMecTest.car[1].cellularNic.nrMac receivedPacketFromUpperLayer:vector(packetBytes) ETV
attr interpolationmode none
attr recordingmode vector(packetBytes)
attr source receivedPacketFromUpperLayer
vector 445 vehicularMecTest.car[2].cellularNic.nrMac receivedPacketFromUpperLayer:vector(packetBytes) ETV
attr interpolationmode none
attr recordingmode vector(packetBytes)
attr source receivedPacketFromUpperLayer
vector 446 vehicularMecTest.car[3].cellularNic.nrMac receivedPacketFromUpperLayer:vector(packetBytes) ETV
attr interpolationmode none
attr recordingmode vector(packetBytes)
attr source receivedPacketFromUpperLayer
vector 447 vehicularMecTest.car[4].cellularNic.nrMac receivedPacketFromUpperLayer:vector(packetBytes) ETV
attr interpolationmode none
attr recordingmode vector(packetBytes)
attr source receivedPacketFromUpperLayer
vector 448 vehicularMecTest.car[5].cellularNic.nrMac receivedPacketFromUpperLayer:vector(packetBytes) ETV
attr interpolationmode none
attr recordingmode vector(packetBytes)
attr source receivedPacketFromUpperLayer
[...]
4105	22302453 32 30397 30397 1.129011551759 1.129011551759 1 65535 65535 65535 4294836225
4106	22302485 33 30397 30397 1.129011551759 1.129011551759 1 282253 282253 282253 79666756009
4107	22302518 33 30401 30401 1.129011551759 1.129011551759 1 282252 282252 282252 79666191504
4108	22302551 33 30401 30401 1.129011551759 1.129011551759 1 282253 282253 282253 79666756009
4109	22302584 28 30401 30401 1.129011551759 1.129011551759 1 0 0 0 0
4110	22302612 32 30401 30401 1.129011551759 1.129011551759 1 65535 65535 65535 4294836225
4111	22302644 33 30406 30406 1.129011551759 1.129011551759 1 282253 282253 282253 79666756009
4112	22302677 33 30406 30406 1.129011551759 1.129011551759 1 282253 282253 282253 79666756009
4113	22302710 28 30406 30406 1.129011551759 1.129011551759 1 0 0 0 0
4114	22302738 28 30406 30406 1.129011551759 1.129011551759 1 0 0 0 0
4115	22302766 56 30414 30422 1.129021042314 1.129021042314 2 0 0 0 0
4116	22302822 98 30414 30422 1.129021042314 1.129021042314 3 65535 347791 761117 246211995587
4117	22302920 64 30414 30422 1.129021042314 1.129021042314 2 65535 65535 131070 8589672450
4118	22302984 61 30414 30422 1.129021042314 1.129021042314 2 0 282256 282256 79668449536
4119	22303045 66 30418 30418 1.129021042314 1.129021042314 2 347791 347791 695582 241917159362
4120	22303111 64 30418 30427 1.129021042314 1.129021042314 2 65535 65535 131070 8589672450
4121	22303175 28 30418 30418 1.129021042314 1.129021042314 1 0 0 0 0
4122	22303203 32 30418 30418 1.129021042314 1.129021042314 1 65535 65535 65535 4294836225
4123	22303235 33 30418 30418 1.129021042314 1.129021042314 1 282256 282256 282256 79668449536
4124	22303268 33 30422 30422 1.129021042314 1.129021042314 1 282255 282255 282255 79667885025
4125	22303301 33 30422 30422 1.129021042314 1.129021042314 1 282256 282256 282256 79668449536
4126	22303334 28 30422 30422 1.129021042314 1.129021042314 1 0 0 0 0
4127	22303362 32 30422 30422 1.129021042314 1.129021042314 1 65535 65535 65535 4294836225
4128	22303394 33 30427 30427 1.129021042314 1.129021042314 1 282256 282256 282256 79668449536
4129	22303427 33 30427 30427 1.129021042314 1.129021042314 1 282256 282256 282256 79668449536
4130	22303460 28 30427 30427 1.129021042314 1.129021042314 1 0 0 0 0
4131	22303488 28 30427 30427 1.129021042314 1.129021042314 1 0 0 0 0
4132	22303516 56 30616 30624 1.129501698288 1.129501698288 2 0 0 0 0
4133	22303572 98 30616 30624 1.129501698288 1.129501698288 3 65535 347911 761357 246378964067
4134	22303670 64 30616 30624 1.129501698288 1.129501698288 2 65535 65535 131070 8589672450
4135	22303734 61 30616 30624 1.129501698288 1.129501698288 2 0 282376 282376 79736205376
4136	22303795 66 30620 30620 1.129501698288 1.129501698288 2 347911 347911 695822 242084127842
4137	22303861 64 30620 30629 1.129501698288 1.129501698288 2 65535 65535 131070 8589672450
4138	22303925 28 30620 30620 1.129501698288 1.129501698288 1 0 0 0 0
4139	22303953 32 30620 30620 1.129501698288 1.129501698288 1 65535 65535 65535 4294836225
4140	22303985 33 30620 30620 1.129501698288 1.129501698288 1 282376 282376 282376 79736205376
4141	22304018 33 30624 30624 1.129501698288 1.129501698288 1 282375 282375 282375 79735640625
4142	22304051 33 30624 30624 1.129501698288 1.129501698288 1 282376 282376 282376 79736205376
4143	22304084 28 30624 30624 1.129501698288 1.129501698288 1 0 0 0 0
4144	22304112 32 30624 30624 1.129501698288 1.129501698288 1 65535 65535 65535 4294836225
4145	22304144 33 30629 30629 1.129501698288 1.129501698288 1 282376 282376 282376 79736205376
4146	22304177 33 30629 30629 1.129501698288 1.129501698288 1 282376 282376 282376 79736205376
4147	22304210 28 30629 30629 1.129501698288 1.129501698288 1 0 0 0 0
4148	22304238 28 30629 30629 1.129501698288 1.129501698288 1 0 0 0 0
4149	22304266 56 30647 30655 1.129510347069 1.129510347069 2 0 0 0 0
4150	22304322 98 30647 30655 1.129510347069 1.129510347069 3 65535 347913 761361 246381747363
4151	22304420 64 30647 30655 1.129510347069 1.129510347069 2 65535 65535 131070 8589672450
4152	22304484 61 30647 30655 1.129510347069 1.129510347069 2 0 282378 282378 79737334884
4153	22304545 66 30651 30651 1.129510347069 1.129510347069 2 347913 347913 695826 242086911138
4154	22304611 64 30651 30660 1.129510347069 1.129510347069 2 65535 65535 131070 8589672450
4155	22304675 28 30651 30651 1.129510347069 1.129510347069 1 0 0 0 0
4156	22304703 32 30651 30651 1.129510347069 1.129510347069 1 65535 65535 65535 4294836225
4157	22304735 33 30651 30651 1.129510347069 1.129510347069 1 282378 282378 282378 79737334884
4158	22304768 33 30655 30655 1.129510347069 1.129510347069 1 282377 282377 282377 79736770129
4159	22304801 33 30655 30655 1.129510347069 1.129510347069 1 282378 282378 282378 79737334884
4160	22304834 28 30655 30655 1.129510347069 1.129510347069 1 0 0 0 0
4161	22304862 32 30655 30655 1.129510347069 1.129510347069 1 65535 65535 65535 4294836225
4162	22304894 33 30660 30660 1.129510347069 1.129510347069 1 282378 282378 282378 79737334884
4163	22304927 33 30660 30660 1.129510347069 1.129510347069 1 282378 282378 282378 79737334884
4164	22304960 28 30660 30660 1.129510347069 1.129510347069 1 0 0 0 0
4165	22304988 28 30660 30660 1.129510347069 1.129510347069 1 0 0 0 0
4166	22305016 56 30668 30676 1.129525888372 1.129525888372 2 0 0 0 0
4167	22305072 98 30668 30676 1.129525888372 1.129525888372 3 65535 347917 761369 246387314003
4168	22305170 64 30668 30676 1.129525888372 1.129525888372 2 65535 65535 131070 8589672450
4169	22305234 61 30668 30676 1.129525888372 1.129525888372 2 0 282382 282382 79739593924
4170	22305295 66 30672 30672 1.129525888372 1.129525888372 2 347917 347917 695834 242092477778
4171	22305361 64 30672 30681 1.129525888372 1.129525888372 2 65535 65535 131070 8589672450
4172	22305425 28 30672 30672 1.129525888372 1.129525888372 1 0 0 0 0
4173	22305453 32 30672 30672 1.129525888372 1.129525888372 1 65535 65535 65535 4294836225
4174	22305485 33 30672 30672 1.129525888372 1.129525888372 1 282382 282382 282382 79739593924
4175	22305518 33 30676 30676 1.129525888372 1.129525888372 1 282381 282381 282381 79739029161
4176	22305551 33 30676 30676 1.129525888372 1.129525888372 1 282382 282382 282382 79739593924
4177	22305584 28 30676 30676 1.129525888372 1.129525888372 1 0 0 0 0
4178	22305612 32 30676 30676 1.129525888372 1.129525888372 1 65535 65535 65535 4294836225
4179	22305644 33 30681 30681 1.129525888372 1.129525888372 1 282382 282382 282382 79739593924
4180	22305677 33 30681 30681 1.129525888372 1.129525888372 1 282382 282382 282382 79739593924
4181	22305710 28 30681 30681 1.129525888372 1.129525888372 1 0 0 0 0
4182	22305738 28 30681 30681 1.129525888372 1.129525888372 1 0 0 0 0
4183	22305766 56 30689 30697 1.129527223464 1.129527223464 2 0 0 0 0
4184	22305822 98 30689 30697 1.129527223464 1.129527223464 3 65535 347917 761369 246387314003
4185	22305920 64 30689 30697 1.129527223464 1.129527223464 2 65535 65535 131070 8589672450
4186	22305984 61 30689 30697 1.129527223464 1.129527223464 2 0 282382 282382 79739593924
4187	22306045 66 30693 30693 1.129527223464 1.129527223464 2 347917 347917 695834 242092477778
4188	22306111 64 30693 30702 1.129527223464 1.129527223464 2 65535 65535 131070 8589672450
4189	22306175 28 30693 30693 1.129527223464 1.129527223464 1 0 0 0 0
4190	22306203 32 30693 30693 1.129527223464 1.129527223464 1 65535 65535 65535 4294836225
4191	22306235 33 30693 30693 1.129527223464 1.129527223464 1 282382 282382 282382 79739593924
4192	22306268 33 30697 30697 1.129527223464 1.129527223464 1 282381 282381 282381 79739029161
4193	22306301 33 30697 30697 1.129527223464 1.129527223464 1 282382 282382 282382 79739593924
4194	22306334 28 30697 30697 1.129527223464 1.129527223464 1 0 0 0 0
4195	22306362 32 30697 30697 1.129527223464 1.129527223464 1 65535 65535 65535 4294836225
4196	22306394 33 30702 30702 1.129527223464 1.129527223464 1 282382 282382 282382 79739593924
4197	22306427 33 30702 30702 1.129527223464 1.129527223464 1 282382 282382 282382 79739593924
4198	22306460 28 30702 30702 1.129527223464 1.129527223464 1 0 0 0 0
4199	22306488 28 30702 30702 1.129527223464 1.129527223464 1 0 0 0 0
4200	22306516 18 30803 30803 1.13 1.13 1 0 0 0 0
4201	22306534 56 30902 30910 1.130013756544 1.130013756544 2 0 0 0 0
4202	22306590 98 30902 30910 1.130013756544 1.130013756544 3 65535 348039 761613 246557127267
4203	22306688 64 30902 30910 1.130013756544 1.130013756544 2 65535 65535 131070 8589672450
4204	22306752 61 30902 30910 1.130013756544 1.130013756544 2 0 282504 282504 79808510016
4205	22306813 66 30906 30906 1.130013756544 1.130013756544 2 348039 348039 696078 242262291042
4206	22306879 64 30906 30915 1.130013756544 1.130013756544 2 65535 65535 131070 8589672450
4207	22306943 28 30906 30906 1.130013756544 1.130013756544 1 0 0 0 0
4208	22306971 32 30906 30906 1.130013756544 1.130013756544 1 65535 65535 65535 4294836225
4209	22307003 33 30906 30906 1.130013756544 1.130013756544 1 282504 282504 282504 79808510016
4210	22307036 33 30910 30910 1.130013756544 1.130013756544 1 282503 282503 282503 79807945009
4211	22307069 33 30910 30910 1.130013756544 1.130013756544 1 282504 282504 282504 79808510016
4212	22307102 28 30910 30910 1.130013756544 1.130013756544 1 0 0 0 0
4213	22307130 32 30910 30910 1.130013756544 1.130013756544 1 65535 65535 65535 4294836225
4214	22307162 33 30915 30915 1.130013756544 1.130013756544 1 282504 282504 282504 79808510016
4215	22307195 33 30915 30915 1.130013756544 1.130013756544 1 282504 282504 282504 79808510016
4216	22307228 28 30915 30915 1.130013756544 1.130013756544 1 0 0 0 0
4217	22307256 28 30915 30915 1.130013756544 1.130013756544 1 0 0 0 0
4218	22307284 54 30923 30931 1.13001711928 1.13001711928 2 0 0 0 0
4219	22307338 95 30923 30931 1.13001711928 1.13001711928 3 65535 348040 761615 246558519425
4220	22307433 62 30923 30931 1.13001711928 1.13001711928 2 65535 65535 131070 8589672450
4221	22307495 59 30923 30931 1.13001711928 1.13001711928 2 0 282505 282505 79809075025
4222	22307554 64 30927 30927 1.13001711928 1.13001711928 2 348040 348040 696080 242263683200
4223	22307618 62 30927 30936 1.13001711928 1.13001711928 2 65535 65535 131070 8589672450
4224	22307680 27 30927 30927 1.13001711928 1.13001711928 1 0 0 0 0
4225	22307707 31 30927 30927 1.13001711928 1.13001711928 1 65535 65535 65535 4294836225
4226	22307738 32 30927 30927 1.13001711928 1.13001711928 1 282505 282505 282505 79809075025
4227	22307770 32 30931 30931 1.13001711928 1.13001711928 1 282504 282504 282504 79808510016
4228	22307802 32 30931 30931 1.13001711928 1.13001711928 1 282505 282505 282505 79809075025
4229	22307834 27 30931 30931 1.13001711928 1.13001711928 1 0 0 0 0
4230	22307861 31 30931 30931 1.13001711928 1.13001711928 1 65535 65535 65535 4294836225
4231	22307892 32 30936 30936 1.13001711928 1.13001711928 1 282505 282505 282505 79809075025
4232	22307924 32 30936 30936 1.13001711928 1.13001711928 1 282505 282505 282505 79809075025
4233	22307956 27 30936 30936 1.13001711928 1.13001711928 1 0 0 0 0
4234	22307983 27 30936 30936 1.13001711928 1.13001711928 1 0 0 0 0
4235	22308010 56 30944 30952 1.130024710806 1.130024710806 2 0 0 0 0
4236	22308066 98 30944 30952 1.130024710806 1.130024710806 3 65535 348042 761619 246561303753
4237	22308164 64 30944 30952 1.130024710806 1.130024710806 2 65535 65535 131070 8589672450
4238	22308228 61 30944 30952 1.130024710806 1.130024710806 2 0 282507 282507 79810205049
4239	22308289 66 30948 30948 1.130024710806 1.130024710806 2 348042 348042 696084 242266467528
4240	22308355 64 30948 30957 1.130024710806 1.130024710806 2 65535 65535 131070 8589672450
4241	22308419 28 30948 30948 1.130024710806 1.130024710806 1 0 0 0 0
4242	22308447 32 30948 30948 1.130024710806 1.130024710806 1 65535 65535 65535 4294836225
4243	22308479 33 30948 30948 1.130024710806 1.130024710806 1 282507 282507 282507 79810205049
4244	22308512 33 30952 30952 1.130024710806 1.130024710806 1 282506 282506 282506 79809640036
4245	22308545 33 30952 30952 1.130024710806 1.130024710806 1 282507 282507 282507 79810205049
4246	22308578 28 30952 30952 1.130024710806 1.130024710806 1 0 0 0 0
4247	22308606 32 30952 30952 1.130024710806 1.130024710806 1 65535 65535 65535 4294836225
4248	22308638 33 30957 30957 1.130024710806 1.130024710806 1 282507 282507 282507 79810205049
4249	22308671 33 30957 30957 1.130024710806 1.130024710806 1 282507 282507 282507 79810205049
4250	22308704 28 30957 30957 1.130024710806 1.130024710806 1 0 0 0 0
4251	22308732 28 30957 30957 1.130024710806 1.130024710806 1 0 0 0 0
4252	22308760 56 31075 31083 1.130503654056 1.130503654056 2 0 0 0 0
4253	22308816 98 31075 31083 1.130503654056 1.130503654056 3 65535 348161 761857 246727000067
4254	22308914 64 31075 31083 1.130503654056 1.130503654056 2 65535 65535 131070 8589672450
4255	22308978 61 31075 31083 1.130503654056 1.130503654056 2 0 282626 282626 79877455876
4256	22309039 66 31079 31079 1.130503654056 1.130503654056 2 348161 348161 696322 242432163842
4257	22309105 64 31079 31088 1.130503654056 1.130503654056 2 65535 65535 131070 8589672450
4258	22309169 28 31079 31079 1.130503654056 1.130503654056 1 0 0 0 0
4259	22309197 32 31079 31079 1.130503654056 1.130503654056 1 65535 65535 65535 4294836225
4260	22309229 33 31079 31079 1.130503654056 1.130503654056 1 282626 282626 282626 79877455876
4261	22309262 33 31083 31083 1.130503654056 1.130503654056 1 282625 282625 282625 79876890625
4262	22309295 33 31083 31083 1.130503654056 1.130503654056 1 282626 282626 282626 79877455876
4263	22309328 28 31083 31083 1.130503654056 1.130503654056 1 0 0 0 0
4264	22309356 32 31083 31083 1.130503654056 1.130503654056 1 65535 65535 65535 4294836225
4265	22309388 33 31088 31088 1.130503654056 1.130503654056 1 282626 282626 282626 79877455876
4266	22309421 33 31088 31088 1.130503654056 1.130503654056 1 282626 282626 282626 79877455876
4267	22309454 28 31088 31088 1.130503654056 1.130503654056 1 0 0 0 0
4268	22309482 28 31088 31088 1.130503654056 1.130503654056 1 0 0 0 0
4269	22309510 19 31150 31150 1.131 1.131 1 0 0 0 0
4270	22309529 19 39246 39246 1.229 1.229 1 1 1 1 1
4271	22309548 19 39247 39247 1.229 1.229 1 1 1 1 1
4272	22309567 19 39248 39248 1.229 1.229 1 1 1 1 1
4273	22309586 19 39249 39249 1.229 1.229 1 1 1 1 1
4274	22309605 19 39250 39250 1.229 1.229 1 1 1 1 1
4275	22309624 19 39251 39251 1.229 1.229 1 1 1 1 1
4276	22309643 19 39252 39252 1.229 1.229 1 1 1 1 1
4277	22309662 19 39253 39253 1.229 1.229 1 1 1 1 1
388	22309681 720896 1242881 1636085 1.229 1.229 32768 228 228 7471104 1703411712
389	23030577 720896 1242881 1636085 1.229 1.229 32768 229 229 7503872 1718386688
2349	23751473 753664 1242884 1636088 1.229 1.229 32768 208 208 6815744 1417674752
431	24505137 720896 1242886 1636090 1.229 1.229 32768 229 229 7503872 1718386688
1181	25226033 688128 1242886 1636090 1.229 1.229 32768 1 1 32768 32768
400	25914161 720896 1242887 1636091 1.229 1.229 32768 228 228 7471104 1703411712
401	26635057 720896 1242887 1636091 1.229 1.229 32768 229 229 7503872 1718386688
2355	27355953 753664 1242890 1636094 1.229 1.229 32768 208 208 6815744 1417674752
425	28109617 720896 1242892 1636096 1.229 1.229 32768 229 229 7503872 1718386688
1019	28830513 688128 1242892 1636096 1.229 1.229 32768 1 1 32768 32768
388	29518641 720896 1636097 2029301 1.229 1.229 32768 228 228 7471104 1703411712
389	30239537 720896 1636097 2029301 1.229 1.229 32768 229 229 7503872 1718386688
2349	30960433 753664 1636100 2029304 1.229 1.229 32768 208 208 6815744 1417674752
431	31714097 720896 1636102 2029306 1.229 1.229 32768 229 229 7503872 1718386688
1181	32434993 688128 1636102 2029306 1.229 1.229 32768 1 1 32768 32768
400	33123121 720896 1636103 2029307 1.229 1.229 32768 228 228 7471104 1703411712
401	33844017 720896 1636103 2029307 1.229 1.229 32768 229 229 7503872 1718386688
2355	34564913 753664 1636106 2029310 1.229 1.229 32768 208 208 6815744 1417674752
425	35318577 720896 1636108 2029312 1.229 1.229 32768 229 229 7503872 1718386688
1019	36039473 688128 1636108 2029312 1.229 1.229 32768 1 1 32768 32768
388	36727601 173184 2029313 2123765 1.229 1.229 7872 228 228 1794816 409218048
389	36900785 173184 2029313 2123765 1.229 1.229 7872 229 229 1802688 412815552
400	37073969 173184 2029319 2123771 1.229 1.229 7872 228 228 1794816 409218048
401	37247153 173184 2029319 2123771 1.229 1.229 7872 229 229 1802688 412815552
425	37420337 173184 2029324 2123776 1.229 1.229 7872 229 229 1802688 412815552
431	37593521 173184 2029318 2123770 1.229 1.229 7872 229 229 1802688 412815552
1019	37766705 165312 2029324 2123776 1.229 1.229 7872 1 1 7872 7872
1181	37932017 165312 2029318 2123770 1.229 1.229 7872 1 1 7872 7872
2349	38097329 181056 2029316 2123768 1.229 1.229 7872 208 208 1637376 340574208
2355	38278385 181056 2029322 2123774 1.229 1.229 7872 208 208 1637376 340574208
vector 4278 vehicularMecTest.gNodeB1.pppMEHostIf.queue outgoingDataRate:vector ETV
attr interpolationmode linear
attr recordingmode vector
attr source throughput(packetPulled)
attr title "outgoing datarate"
attr unit bps
vector 4279 vehicularMecTest.gNodeB1.pppMEHostIf.queue incomingDataRate:vector ETV
attr interpolationmode linear
attr recordingmode vector
attr source throughput(packetPushStarted)
attr title "incoming datarate"
attr unit bps
vector 4280 vehicularMecTest.mecHost.virtualisationInfrastructure.pppIf[0].queue outgoingDataRate:vector ETV
attr interpolationmode linear
attr recordingmode vector
attr source throughput(packetPulled)
attr title "outgoing datarate"
attr unit bps
vector 4281 vehicularMecTest.mecHost.virtualisationInfrastructure.pppIf[0].queue incomingDataRate:vector ETV
attr interpolationmode linear
attr recordingmode vector
attr source throughput(packetPushStarted)
attr title "incoming datarate"
attr unit bps
vector 4282 vehicularMecTest.mecHost.upf_mec.ppp[0].queue outgoingDataRate:vector ETV
attr interpolationmode linear
attr recordingmode vector
attr source throughput(packetPulled)
attr title "outgoing datarate"
attr unit bps
vector 4283 vehicularMecTest.mecHost.upf_mec.ppp[0].queue incomingDataRate:vector ETV
attr interpolationmode linear
attr recordingmode vector
attr source throughput(packetPushStarted)
attr title "incoming datarate"
attr unit bps
vector 4284 vehicularMecTest.mecHost.upf_mec.pppIf.queue outgoingDataRate:vector ETV
attr interpolationmode linear
attr recordingmode vector
attr source throughput(packetPulled)
attr title "outgoing datarate"
attr unit bps
vector 4285 vehicularMecTest.mecHost.upf_mec.pppIf.queue incomingDataRate:vector ETV
attr interpolationmode linear
attr recordingmode vector
attr source throughput(packetPushStarted)
attr title "incoming datarate"
attr unit bps
1096	38461291 26 2123776 2123776 1.229 1.229 1 608000 608000 608000 369664000000
1099	38461317 35 2123776 2123776 1.229 1.229 1 608004.48572198 608004.48572198 608004.48572198 369669454658.05
1107	38461352 35 2123776 2123776 1.229 1.229 1 320006.49968757 320006.49968757 320006.49968757 102404159842.29
1110	38461387 35 2123776 2123776 1.229 1.229 1 320006.49968757 320006.49968757 320006.49968757 102404159842.29
1125	38461422 35 2123776 2123776 1.229 1.229 1 9393270.9958682 9393270.9958682 9393270.9958682 88233540001819
1128	38461457 35 2123776 2123776 1.229 1.229 1 9393270.9958682 9393270.9958682 9393270.9958682 88233540001819
1141	38461492 35 2123776 2123776 1.229 1.229 1 10185349.612125 10185349.612125 10185349.612125 1.0374134672122e+14
1144	38461527 35 2123776 2123776 1.229 1.229 1 10185349.612125 10185349.612125 10185349.612125 1.0374134672122e+14
4278	38461562 247 2123776 2123776 0.1 1.229 13 0 0 0 0
4279	38461809 247 2123776 2123776 0.1 1.229 13 0 0 0 0
4280	38462056 247 2123776 2123776 0.1 1.229 13 0 0 0 0
4281	38462303 247 2123776 2123776 0.1 1.229 13 0 0 0 0
4282	38462550 247 2123776 2123776 0.1 1.229 13 0 0 0 0
4283	38462797 247 2123776 2123776 0.1 1.229 13 0 0 0 0
4284	38463044 247 2123776 2123776 0.1 1.229 13 0 0 0 0
4285	38463291 247 2123776 2123776 0.1 1.229 13 0 0 0 0

