version 3
run Handover-General-0-20230627-20:13:43-20477
attr configname Handover-General
attr datetime 20230627-20:13:43
attr datetimef 20230627-201343
attr experiment Handover-General
attr inifile omnetpp.ini
attr iterationvars $numBands=6
attr iterationvarsd numBands=6
attr iterationvarsf numBands=6-
attr measurement $numBands=6
attr network simu5g.simulations.NR.mec.RNIDelay.MultiCell
attr processid 20477
attr repetition 0
attr replication #0
attr resultdir results
attr runnumber 0
attr seedset 0
itervar numBands 6
config image-path ../../../../images:../../../../../inet/images:../../../../../veins/images:../../../../../veins_inet/images
config **.ue*.masterId 0
config **.ue*.macCellId 0
config **.ue1*.nrMacCellId 1
config **.ue1*.nrMasterId 1
config **.ue2*.nrMacCellId 2
config **.ue2*.nrMasterId 2
config *.gNodeB*.cellularNic.phy.enableHandover true
config *.ue*.cellularNic.nrPhy.enableHandover true
config *.gNodeB2.numX2Apps 2
config *.gNodeB*.numX2Apps 1
config *.gNodeB*.x2App[*].server.localPort "5000 + ancestorIndex(1)"
config *.gNodeB1.x2App[0].client.connectAddress "\"gNodeB2%x2ppp0\""
config *.gNodeB2.x2App[0].client.connectAddress "\"gNodeB1%x2ppp0\""
config *.gNodeB2.x2App[1].client.connectAddress "\"gNodeB3%x2ppp0\""
config *.gNodeB3.x2App[0].client.connectAddress "\"gNodeB2%x2ppp1\""
config **.mobility.initFromDisplayString false
config *.gNodeB1.mobility.initialX 300m
config *.gNodeB1.mobility.initialY 300m
config *.gNodeB2.mobility.initialX 500m
config *.gNodeB2.mobility.initialY 300m
config *.gNodeB3.mobility.initialX 700m
config *.gNodeB3.mobility.initialY 300m
config *.ue11.mobility.initialX 350m
config *.ue11.mobility.initialY 280m
config *.ue11.mobility.speed 0mps
config *.ue11.mobility.initialMovementHeading 0deg
config *.ue11.mobility.typename LinearMobility
config *.ue11.mobility.constraintAreaMinX 250m
config *.ue11.mobility.constraintAreaMaxX 450m
config *.ue12.mobility.initialX 320m
config *.ue12.mobility.initialY 280m
config *.ue12.mobility.speed 0mps
config *.ue12.mobility.initialMovementHeading 0deg
config *.ue12.mobility.typename LinearMobility
config *.ue12.mobility.constraintAreaMinX 250m
config *.ue12.mobility.constraintAreaMaxX 450m
config *.ue*.mobility.constraintAreaMaxX 750m
config *.ue*.mobility.constraintAreaMaxY 400m
config *.ue*.mobility.constraintAreaMinX 50m
config *.ue*.mobility.constraintAreaMinY 100m
config *.ue2*.mobility.initialX uniform(450m,750m)
config *.ue2*.mobility.initialY uniform(100m,400m)
config *.ue*.mobility.initialZ 0m
config image-path ../../images
config output-scalar-file-append false
config sim-time-limit 20s
config num-rngs 3
config network simu5g.simulations.NR.mec.RNIDelay.MultiCell
config **.routingRecorder.enabled false
config **.mac.schedulingDisciplineDl "\"MAXCI\""
config **.mac.schedulingDisciplineUl "\"MAXCI\""
config **.cellularNic.channelModel[0].shadowing false
config **.cellularNic.channelModel[0].fading false
config **.mecHost.**.vector-recording true
config **.vector-recording true
config *.gNodeB*.cellInfo.broadcastMessageInterval 0.5s
config **.fbPeriod 40
config **.amcType "\"NRAmc\""
config **.pilotMode "\"ROBUST_CQI\""
config **.targetBler 0.01
config **.blerShift 5
config **.mobility.constraintAreaMinZ 0m
config **.mobility.constraintAreaMaxZ 0m
config **.mobility.initFromDisplayString true
config **.numBands 6
config **.ueTxPower 26
config **.eNodeBTxPower 30
config *.configurator.config "xmldoc(\"./demo.xml\")"
config *.mecHost.maxMECApps 100
config *.mecHost.maxRam 32GB
config *.mecHost.maxDisk 100TB
config *.mecHost.maxCpuSpeed 300000
config **.gNodeB*.mecHost "\"mecHost\""
config **.hasRNISupport true
config *.mecHost.mecPlatform.numMecServices 0
config *.mecHost.mecPlatform.mecService[0] "\"RNIService\""
config *.mecHost.mecPlatform.mecService[0].localAddress "\"mecHost.virtualisationInfrastructure\""
config *.mecHost.mecPlatform.mecService[0].localPort 10020
config *.mecHost.mecPlatform.mecService[0].rng-0 0
config *.mecHost.mecPlatform.mecService[0].rng-1 1
config *.mecHost.mecPlatform.mecService[0].requestServiceTime 15us
config *.mecHost.mecPlatform.mecService[0].subscriptionServiceTime 11us
config *.mecHost.mecPlatformManager.mecOrchestrator "\"\""

scalar MultiCell.gNodeB1.x2App[0].client ums 1452
scalar MultiCell.gNodeB2.x2App[0].client ums 1452
scalar MultiCell.gNodeB2.x2App[1].client ums 1452
scalar MultiCell.gNodeB3.x2App[0].client ums 1452
par MultiCell.server.pppg$o[0].channel typename "\"inet.node.ethernet.Eth10G\""
par MultiCell.server.pppg$o[0].channel disabled false
attr mutable ""
par MultiCell.server.pppg$o[0].channel delay 5e-08s
attr mutable ""
attr unit s
par MultiCell.server.pppg$o[0].channel datarate 1e+10bps
attr mutable ""
attr unit bps
par MultiCell.server.pppg$o[0].channel ber 0
attr mutable ""
par MultiCell.server.pppg$o[0].channel per 0
attr mutable ""
par MultiCell.server.pppg$o[0].channel length 10m
attr unit m
par MultiCell.router.pppg$o[0].channel typename "\"inet.node.ethernet.Eth10G\""
par MultiCell.router.pppg$o[0].channel disabled false
attr mutable ""
par MultiCell.router.pppg$o[0].channel delay 5e-08s
attr mutable ""
attr unit s
par MultiCell.router.pppg$o[0].channel datarate 1e+10bps
attr mutable ""
attr unit bps
par MultiCell.router.pppg$o[0].channel ber 0
attr mutable ""
par MultiCell.router.pppg$o[0].channel per 0
attr mutable ""
par MultiCell.router.pppg$o[0].channel length 10m
attr unit m
par MultiCell.router.pppg$o[1].channel typename "\"inet.node.ethernet.Eth10G\""
par MultiCell.router.pppg$o[1].channel disabled false
attr mutable ""
par MultiCell.router.pppg$o[1].channel delay 5e-08s
attr mutable ""
attr unit s
par MultiCell.router.pppg$o[1].channel datarate 1e+10bps
attr mutable ""
attr unit bps
par MultiCell.router.pppg$o[1].channel ber 0
attr mutable ""
par MultiCell.router.pppg$o[1].channel per 0
attr mutable ""
par MultiCell.router.pppg$o[1].channel length 10m
attr unit m
par MultiCell.upf.filterGate$o.channel typename "\"inet.node.ethernet.Eth10G\""
par MultiCell.upf.filterGate$o.channel disabled false
attr mutable ""
par MultiCell.upf.filterGate$o.channel delay 5e-08s
attr mutable ""
attr unit s
par MultiCell.upf.filterGate$o.channel datarate 1e+10bps
attr mutable ""
attr unit bps
par MultiCell.upf.filterGate$o.channel ber 0
attr mutable ""
par MultiCell.upf.filterGate$o.channel per 0
attr mutable ""
par MultiCell.upf.filterGate$o.channel length 10m
attr unit m
par MultiCell.upf.pppg$o[0].channel typename "\"inet.node.ethernet.Eth10G\""
par MultiCell.upf.pppg$o[0].channel disabled false
attr mutable ""
par MultiCell.upf.pppg$o[0].channel delay 5e-08s
attr mutable ""
attr unit s
par MultiCell.upf.pppg$o[0].channel datarate 1e+10bps
attr mutable ""
attr unit bps
par MultiCell.upf.pppg$o[0].channel ber 0
attr mutable ""
par MultiCell.upf.pppg$o[0].channel per 0
attr mutable ""
par MultiCell.upf.pppg$o[0].channel length 10m
attr unit m
par MultiCell.gNodeB1.ppp$o.channel typename "\"inet.node.ethernet.Eth10G\""
par MultiCell.gNodeB1.ppp$o.channel disabled false
attr mutable ""
par MultiCell.gNodeB1.ppp$o.channel delay 5e-08s
attr mutable ""
attr unit s
par MultiCell.gNodeB1.ppp$o.channel datarate 1e+10bps
attr mutable ""
attr unit bps
par MultiCell.gNodeB1.ppp$o.channel ber 0
attr mutable ""
par MultiCell.gNodeB1.ppp$o.channel per 0
attr mutable ""
par MultiCell.gNodeB1.ppp$o.channel length 10m
attr unit m
par MultiCell.upf.pppg$o[1].channel typename "\"inet.node.ethernet.Eth10G\""
par MultiCell.upf.pppg$o[1].channel disabled false
attr mutable ""
par MultiCell.upf.pppg$o[1].channel delay 5e-08s
attr mutable ""
attr unit s
par MultiCell.upf.pppg$o[1].channel datarate 1e+10bps
attr mutable ""
attr unit bps
par MultiCell.upf.pppg$o[1].channel ber 0
attr mutable ""
par MultiCell.upf.pppg$o[1].channel per 0
attr mutable ""
par MultiCell.upf.pppg$o[1].channel length 10m
attr unit m
par MultiCell.gNodeB2.ppp$o.channel typename "\"inet.node.ethernet.Eth10G\""
par MultiCell.gNodeB2.ppp$o.channel disabled false
attr mutable ""
par MultiCell.gNodeB2.ppp$o.channel delay 5e-08s
attr mutable ""
attr unit s
par MultiCell.gNodeB2.ppp$o.channel datarate 1e+10bps
attr mutable ""
attr unit bps
par MultiCell.gNodeB2.ppp$o.channel ber 0
attr mutable ""
par MultiCell.gNodeB2.ppp$o.channel per 0
attr mutable ""
par MultiCell.gNodeB2.ppp$o.channel length 10m
attr unit m
par MultiCell.upf.pppg$o[2].channel typename "\"inet.node.ethernet.Eth10G\""
par MultiCell.upf.pppg$o[2].channel disabled false
attr mutable ""
par MultiCell.upf.pppg$o[2].channel delay 5e-08s
attr mutable ""
attr unit s
par MultiCell.upf.pppg$o[2].channel datarate 1e+10bps
attr mutable ""
attr unit bps
par MultiCell.upf.pppg$o[2].channel ber 0
attr mutable ""
par MultiCell.upf.pppg$o[2].channel per 0
attr mutable ""
par MultiCell.upf.pppg$o[2].channel length 10m
attr unit m
par MultiCell.gNodeB3.ppp$o.channel typename "\"inet.node.ethernet.Eth10G\""
par MultiCell.gNodeB3.ppp$o.channel disabled false
attr mutable ""
par MultiCell.gNodeB3.ppp$o.channel delay 5e-08s
attr mutable ""
attr unit s
par MultiCell.gNodeB3.ppp$o.channel datarate 1e+10bps
attr mutable ""
attr unit bps
par MultiCell.gNodeB3.ppp$o.channel ber 0
attr mutable ""
par MultiCell.gNodeB3.ppp$o.channel per 0
attr mutable ""
par MultiCell.gNodeB3.ppp$o.channel length 10m
attr unit m
par MultiCell.gNodeB1.x2$o[0].channel typename "\"inet.node.ethernet.Eth10G\""
par MultiCell.gNodeB1.x2$o[0].channel disabled false
attr mutable ""
par MultiCell.gNodeB1.x2$o[0].channel delay 5e-08s
attr mutable ""
attr unit s
par MultiCell.gNodeB1.x2$o[0].channel datarate 1e+10bps
attr mutable ""
attr unit bps
par MultiCell.gNodeB1.x2$o[0].channel ber 0
attr mutable ""
par MultiCell.gNodeB1.x2$o[0].channel per 0
attr mutable ""
par MultiCell.gNodeB1.x2$o[0].channel length 10m
attr unit m
par MultiCell.gNodeB2.x2$o[0].channel typename "\"inet.node.ethernet.Eth10G\""
par MultiCell.gNodeB2.x2$o[0].channel disabled false
attr mutable ""
par MultiCell.gNodeB2.x2$o[0].channel delay 5e-08s
attr mutable ""
attr unit s
par MultiCell.gNodeB2.x2$o[0].channel datarate 1e+10bps
attr mutable ""
attr unit bps
par MultiCell.gNodeB2.x2$o[0].channel ber 0
attr mutable ""
par MultiCell.gNodeB2.x2$o[0].channel per 0
attr mutable ""
par MultiCell.gNodeB2.x2$o[0].channel length 10m
attr unit m
par MultiCell.gNodeB2.x2$o[1].channel typename "\"inet.node.ethernet.Eth10G\""
par MultiCell.gNodeB2.x2$o[1].channel disabled false
attr mutable ""
par MultiCell.gNodeB2.x2$o[1].channel delay 5e-08s
attr mutable ""
attr unit s
par MultiCell.gNodeB2.x2$o[1].channel datarate 1e+10bps
attr mutable ""
attr unit bps
par MultiCell.gNodeB2.x2$o[1].channel ber 0
attr mutable ""
par MultiCell.gNodeB2.x2$o[1].channel per 0
attr mutable ""
par MultiCell.gNodeB2.x2$o[1].channel length 10m
attr unit m
par MultiCell.gNodeB3.x2$o[0].channel typename "\"inet.node.ethernet.Eth10G\""
par MultiCell.gNodeB3.x2$o[0].channel disabled false
attr mutable ""
par MultiCell.gNodeB3.x2$o[0].channel delay 5e-08s
attr mutable ""
attr unit s
par MultiCell.gNodeB3.x2$o[0].channel datarate 1e+10bps
attr mutable ""
attr unit bps
par MultiCell.gNodeB3.x2$o[0].channel ber 0
attr mutable ""
par MultiCell.gNodeB3.x2$o[0].channel per 0
attr mutable ""
par MultiCell.gNodeB3.x2$o[0].channel length 10m
attr unit m
par MultiCell.mecHost.ppp$o[0].channel typename "\"inet.node.ethernet.Eth10G\""
par MultiCell.mecHost.ppp$o[0].channel disabled false
attr mutable ""
par MultiCell.mecHost.ppp$o[0].channel delay 5e-08s
attr mutable ""
attr unit s
par MultiCell.mecHost.ppp$o[0].channel datarate 1e+10bps
attr mutable ""
attr unit bps
par MultiCell.mecHost.ppp$o[0].channel ber 0
attr mutable ""
par MultiCell.mecHost.ppp$o[0].channel per 0
attr mutable ""
par MultiCell.mecHost.ppp$o[0].channel length 10m
attr unit m
par MultiCell.gNodeB1.pppMEHost$o.channel typename "\"inet.node.ethernet.Eth10G\""
par MultiCell.gNodeB1.pppMEHost$o.channel disabled false
attr mutable ""
par MultiCell.gNodeB1.pppMEHost$o.channel delay 5e-08s
attr mutable ""
attr unit s
par MultiCell.gNodeB1.pppMEHost$o.channel datarate 1e+10bps
attr mutable ""
attr unit bps
par MultiCell.gNodeB1.pppMEHost$o.channel ber 0
attr mutable ""
par MultiCell.gNodeB1.pppMEHost$o.channel per 0
attr mutable ""
par MultiCell.gNodeB1.pppMEHost$o.channel length 10m
attr unit m
par MultiCell.mecHost.ppp$o[1].channel typename "\"inet.node.ethernet.Eth10G\""
par MultiCell.mecHost.ppp$o[1].channel disabled false
attr mutable ""
par MultiCell.mecHost.ppp$o[1].channel delay 5e-08s
attr mutable ""
attr unit s
par MultiCell.mecHost.ppp$o[1].channel datarate 1e+10bps
attr mutable ""
attr unit bps
par MultiCell.mecHost.ppp$o[1].channel ber 0
attr mutable ""
par MultiCell.mecHost.ppp$o[1].channel per 0
attr mutable ""
par MultiCell.mecHost.ppp$o[1].channel length 10m
attr unit m
par MultiCell.gNodeB2.pppMEHost$o.channel typename "\"inet.node.ethernet.Eth10G\""
par MultiCell.gNodeB2.pppMEHost$o.channel disabled false
attr mutable ""
par MultiCell.gNodeB2.pppMEHost$o.channel delay 5e-08s
attr mutable ""
attr unit s
par MultiCell.gNodeB2.pppMEHost$o.channel datarate 1e+10bps
attr mutable ""
attr unit bps
par MultiCell.gNodeB2.pppMEHost$o.channel ber 0
attr mutable ""
par MultiCell.gNodeB2.pppMEHost$o.channel per 0
attr mutable ""
par MultiCell.gNodeB2.pppMEHost$o.channel length 10m
attr unit m
par MultiCell.mecHost.ppp$o[2].channel typename "\"inet.node.ethernet.Eth10G\""
par MultiCell.mecHost.ppp$o[2].channel disabled false
attr mutable ""
par MultiCell.mecHost.ppp$o[2].channel delay 5e-08s
attr mutable ""
attr unit s
par MultiCell.mecHost.ppp$o[2].channel datarate 1e+10bps
attr mutable ""
attr unit bps
par MultiCell.mecHost.ppp$o[2].channel ber 0
attr mutable ""
par MultiCell.mecHost.ppp$o[2].channel per 0
attr mutable ""
par MultiCell.mecHost.ppp$o[2].channel length 10m
attr unit m
par MultiCell.gNodeB3.pppMEHost$o.channel typename "\"inet.node.ethernet.Eth10G\""
par MultiCell.gNodeB3.pppMEHost$o.channel disabled false
attr mutable ""
par MultiCell.gNodeB3.pppMEHost$o.channel delay 5e-08s
attr mutable ""
attr unit s
par MultiCell.gNodeB3.pppMEHost$o.channel datarate 1e+10bps
attr mutable ""
attr unit bps
par MultiCell.gNodeB3.pppMEHost$o.channel ber 0
attr mutable ""
par MultiCell.gNodeB3.pppMEHost$o.channel per 0
attr mutable ""
par MultiCell.gNodeB3.pppMEHost$o.channel length 10m
attr unit m
par MultiCell.channelControl typename "\"simu5g.world.radio.LteChannelControl\""
par MultiCell.channelControl coreDebug false
par MultiCell.channelControl pMax 20mW
attr unit mW
par MultiCell.channelControl sat -110dBm
attr unit dBm
par MultiCell.channelControl alpha 2
par MultiCell.channelControl carrierFrequency 2.4e+09Hz
attr unit Hz
par MultiCell.channelControl numChannels 1
par MultiCell.channelControl propagationModel "\"FreeSpaceModel\""
attr enum FreeSpaceModel,TwoRayGroundModel,RiceModel,RayleighModel,NakagamiModel,LogNormalShadowingModel
par MultiCell.routingRecorder typename "\"inet.networklayer.ipv4.RoutingTableRecorder\""
par MultiCell.routingRecorder enabled false
par MultiCell.configurator typename "\"inet.networklayer.configurator.ipv4.Ipv4NetworkConfigurator\""
par MultiCell.configurator minLinkWeight 0.001
par MultiCell.configurator configureIsolatedNetworksSeparatly false
par MultiCell.configurator config "<config>...</config> at /home/omnet/Documents/omnetpp/workspace11.0/simu5G/simulations/NR/mec/RNIDelay//./demo.xml:1"
par MultiCell.configurator assignAddresses true
par MultiCell.configurator assignUniqueAddresses true
par MultiCell.configurator assignDisjunctSubnetAddresses true
par MultiCell.configurator addStaticRoutes true
par MultiCell.configurator addDefaultRoutes true
par MultiCell.configurator addSubnetRoutes true
par MultiCell.configurator addDirectRoutes true
par MultiCell.configurator optimizeRoutes true
par MultiCell.configurator dumpTopology false
par MultiCell.configurator dumpLinks false
par MultiCell.configurator dumpAddresses false
par MultiCell.configurator dumpRoutes false
par MultiCell.configurator dumpConfig "\"\""
par MultiCell.binder typename "\"simu5g.common.binder.Binder\""
par MultiCell.binder blerShift 5
par MultiCell.binder maxDataRatePerRb 1.16Mbps
attr unit Mbps
par MultiCell.binder printTrafficGeneratorConfig false
par MultiCell.carrierAggregation.componentCarrier[0] typename "\"simu5g.common.carrierAggregation.ComponentCarrier\""
par MultiCell.carrierAggregation.componentCarrier[0] carrierFrequency 2GHz
attr unit GHz
par MultiCell.carrierAggregation.componentCarrier[0] numBands 6
par MultiCell.carrierAggregation.componentCarrier[0] numerologyIndex 0
par MultiCell.carrierAggregation.componentCarrier[0] useTdd false
par MultiCell.carrierAggregation.componentCarrier[0] tddNumSymbolsDl 7
par MultiCell.carrierAggregation.componentCarrier[0] tddNumSymbolsUl 7
par MultiCell.carrierAggregation typename "\"simu5g.common.carrierAggregation.CarrierAggregation\""
par MultiCell.carrierAggregation numComponentCarriers 1
par MultiCell.server.pppg$i[0].channel typename "\"ned.IdealChannel\""
par MultiCell.server.ppp[0].phys$o.channel typename "\"ned.IdealChannel\""
par MultiCell.server.interfaceTable typename "\"inet.networklayer.common.InterfaceTable\""
par MultiCell.server.interfaceTable displayAddresses false
par MultiCell.server.cb typename "\"inet.common.MessageDispatcher\""
par MultiCell.server.cb displayStringTextFormat "\"processed %p pk (%l)\""
par MultiCell.server.cb forwardServiceRegistration true
par MultiCell.server.cb forwardProtocolRegistration true
par MultiCell.server.bl typename "\"inet.common.MessageDispatcher\""
par MultiCell.server.bl displayStringTextFormat "\"processed %p pk (%l)\""
par MultiCell.server.bl forwardServiceRegistration true
par MultiCell.server.bl forwardProtocolRegistration true
par MultiCell.server.li typename "\"inet.common.MessageDispatcher\""
par MultiCell.server.li displayStringTextFormat "\"processed %p pk (%l)\""
par MultiCell.server.li forwardServiceRegistration true
par MultiCell.server.li forwardProtocolRegistration true
par MultiCell.server.lo[0].upperLayerIn.channel typename "\"ned.IdealChannel\""
par MultiCell.server.lo[0].lo.upperLayerOut.channel typename "\"ned.IdealChannel\""
par MultiCell.server.lo[0].lo typename "\"inet.linklayer.loopback.Loopback\""
par MultiCell.server.lo[0].lo interfaceTableModule "\"MultiCell.server.interfaceTable\""
par MultiCell.server.lo[0].lo mtu 4470B
attr unit B
scalar MultiCell.server.lo[0].lo rcvdPkFromHl:count 0
attr interpolationmode none
attr recordingmode count
attr source packetReceivedFromUpper
attr title "packets received from higher layer, count"
scalar MultiCell.server.lo[0].lo rcvdPkFromHl:sum(packetBytes) 0
attr interpolationmode none
attr recordingmode sum(packetBytes)
attr source packetReceivedFromUpper
attr title "packets received from higher layer, sum(packetBytes)"
scalar MultiCell.server.lo[0].lo passedUpPk:count 0
attr interpolationmode none
attr recordingmode count
attr source packetSentToUpper
attr title "packets passed to higher layer, count"
scalar MultiCell.server.lo[0].lo passedUpPk:sum(packetBytes) 0
attr interpolationmode none
attr recordingmode sum(packetBytes)
attr source packetSentToUpper
attr title "packets passed to higher layer, sum(packetBytes)"
par MultiCell.server.lo[0] typename "\"inet.linklayer.loopback.LoopbackInterface\""
par MultiCell.server.lo[0] displayStringTextFormat "\"%a (%i)\\n%m\""
par MultiCell.server.lo[0] recordPcap false
par MultiCell.server.lo[0] numPcapRecorders 0
par MultiCell.server.lo[0] interfaceTableModule "\"MultiCell.server.interfaceTable\""
scalar MultiCell.server.lo[0] packetDropInterfaceDown:count 0
attr interpolationmode none
attr recordingmode count
attr source packetDropReasonIsInterfaceDown(packetDropped)
attr title "packet drops: interface down, count"
scalar MultiCell.server.lo[0] packetDropInterfaceDown:sum(packetBytes) 0
attr interpolationmode none
attr recordingmode sum(packetBytes)
attr source packetDropReasonIsInterfaceDown(packetDropped)
attr title "packet drops: interface down, sum(packetBytes)"
scalar MultiCell.server.lo[0] packetDropNoCarrier:count 0
attr interpolationmode none
attr recordingmode count
attr source packetDropReasonIsNoCarrier(packetDropped)
attr title "packet drops: no carrier, count"
scalar MultiCell.server.lo[0] packetDropNoCarrier:sum(packetBytes) 0
attr interpolationmode none
attr recordingmode sum(packetBytes)
attr source packetDropReasonIsNoCarrier(packetDropped)
attr title "packet drops: no carrier, sum(packetBytes)"
par MultiCell.server.ppp[0].phys$i.channel typename "\"ned.IdealChannel\""
par MultiCell.server.ppp[0].ppp.phys$o.channel typename "\"ned.IdealChannel\""
par MultiCell.server.ppp[0].ppp.upperLayerOut.channel typename "\"ned.IdealChannel\""
par MultiCell.server.ppp[0].upperLayerIn.channel typename "\"ned.IdealChannel\""
par MultiCell.server.ppp[0].queue typename "\"inet.queueing.queue.DropTailQueue\""
par MultiCell.server.ppp[0].queue displayStringTextFormat "\"contains %p pk (%l) pushed %u\\npulled %o removed %r dropped %d\""
par MultiCell.server.ppp[0].queue packetCapacity 10000
par MultiCell.server.ppp[0].queue dataCapacity -1b
attr unit b
par MultiCell.server.ppp[0].queue dropperClass "\"inet::queueing::PacketAtCollectionEndDropper\""
par MultiCell.server.ppp[0].queue comparatorClass "\"\""
par MultiCell.server.ppp[0].queue bufferModule "\"\""
scalar MultiCell.server.ppp[0].queue queueLength:last nan
attr autoWarmupFilter false
attr interpolationmode sample-hold
attr recordingmode last
attr source "warmup(atomic(constant0(packetPushEnded) + count(packetPushStarted) - count(packetPulled) - count(packetRemoved) - count(packetDropped)))"
attr title "queue length, last"
attr unit pk
scalar MultiCell.server.ppp[0].queue queueLength:max -nan
attr autoWarmupFilter false
attr interpolationmode sample-hold
attr recordingmode max
attr source "warmup(atomic(constant0(packetPushEnded) + count(packetPushStarted) - count(packetPulled) - count(packetRemoved) - count(packetDropped)))"
attr title "queue length, max"
attr unit pk
scalar MultiCell.server.ppp[0].queue queueLength:timeavg -nan
attr autoWarmupFilter false
attr interpolationmode sample-hold
attr recordingmode timeavg
attr source "warmup(atomic(constant0(packetPushEnded) + count(packetPushStarted) - count(packetPulled) - count(packetRemoved) - count(packetDropped)))"
attr title "queue length, timeavg"
attr unit pk
scalar MultiCell.server.ppp[0].queue queueBitLength:last nan
attr autoWarmupFilter false
attr interpolationmode sample-hold
attr recordingmode last
attr source "warmup(atomic(constant0(packetPushEnded) + sum(packetLength(packetPushStarted)) - sum(packetLength(packetPulled)) - sum(packetLength(packetRemoved)) - sum(packetLength(packetDropped))))"
attr title "queue bit length, last"
attr unit b
scalar MultiCell.server.ppp[0].queue queueBitLength:max -nan
attr autoWarmupFilter false
attr interpolationmode sample-hold
attr recordingmode max
attr source "warmup(atomic(constant0(packetPushEnded) + sum(packetLength(packetPushStarted)) - sum(packetLength(packetPulled)) - sum(packetLength(packetRemoved)) - sum(packetLength(packetDropped))))"
attr title "queue bit length, max"
attr unit b
scalar MultiCell.server.ppp[0].queue queueBitLength:timeavg -nan
attr autoWarmupFilter false
attr interpolationmode sample-hold
attr recordingmode timeavg
attr source "warmup(atomic(constant0(packetPushEnded) + sum(packetLength(packetPushStarted)) - sum(packetLength(packetPulled)) - sum(packetLength(packetRemoved)) - sum(packetLength(packetDropped))))"
attr title "queue bit length, timeavg"
attr unit b
statistic MultiCell.server.ppp[0].queue queueingTime:histogram
field count 0
field mean -nan
field stddev -nan
field min -nan
field max -nan
field sum 0
field sqrsum 0
attr interpolationmode none
attr recordingmode histogram
attr source queueingTime(packetPulled)
attr title "queueing times"
attr unit s
bin	-inf	0
bin	0	0
bin	1	0
scalar MultiCell.server.ppp[0].queue outgoingPackets:count 0
attr recordingmode count
attr source packetPulled
attr title "outgoing packets, count"
attr unit pk
scalar MultiCell.server.ppp[0].queue outgoingPacketLengths:sum 0
attr interpolationmode none
attr recordingmode sum
attr source packetLength(packetPulled)
attr title "outgoing packet lengths, sum"
attr unit b
statistic MultiCell.server.ppp[0].queue outgoingPacketLengths:histogram
field count 0
field mean -nan
field stddev -nan
field min -nan
field max -nan
field sum 0
field sqrsum 0
attr interpolationmode none
attr recordingmode histogram
attr source packetLength(packetPulled)
attr title "outgoing packet lengths"
attr unit b
bin	-inf	0
bin	0	0
bin	1	0
statistic MultiCell.server.ppp[0].queue flowQueueingTime:histogram
field count 0
field mean -nan
field stddev -nan
field min -nan
field max -nan
field sum 0
field sqrsum 0
attr interpolationmode none
attr recordingmode histogram
attr source queueingTime(demuxFlow(packetPulled))
attr title "flow queueing times"
attr unit s
bin	-inf	0
bin	0	0
bin	1	0
scalar MultiCell.server.ppp[0].queue incomingPackets:count 0
attr recordingmode count
attr source packetPushStarted
attr title "incoming packets, count"
attr unit pk
scalar MultiCell.server.ppp[0].queue incomingPacketLengths:sum 0
attr interpolationmode none
attr recordingmode sum
attr source packetLength(packetPushStarted)
attr title "incoming packet lengths, sum"
attr unit b
statistic MultiCell.server.ppp[0].queue incomingPacketLengths:histogram
field count 0
field mean -nan
field stddev -nan
field min -nan
field max -nan
field sum 0
field sqrsum 0
attr interpolationmode none
attr recordingmode histogram
attr source packetLength(packetPushStarted)
attr title "incoming packet lengths"
attr unit b
bin	-inf	0
bin	0	0
bin	1	0
scalar MultiCell.server.ppp[0].queue droppedPacketsQueueOverflow:count 0
attr interpolationmode none
attr recordingmode count
attr source packetDropReasonIsQueueOverflow(packetDropped)
attr title "dropped packets: queue overflow, count"
attr unit pk
scalar MultiCell.server.ppp[0].queue droppedPacketLengthsQueueOverflow:sum 0
attr interpolationmode none
attr recordingmode sum
attr source packetLength(packetDropReasonIsQueueOverflow(packetDropped))
attr title "dropped packet lengths: queue overflow, sum"
attr unit b
par MultiCell.server.ppp[0].ppp typename "\"inet.linklayer.ppp.Ppp\""
par MultiCell.server.ppp[0].ppp interfaceTableModule "\"MultiCell.server.interfaceTable\""
par MultiCell.server.ppp[0].ppp displayStringTextFormat "\"rate: %b\\nsent: %s, rcvd: %r\\nqueue: %q, drop: %d\""
par MultiCell.server.ppp[0].ppp sendRawBytes false
par MultiCell.server.ppp[0].ppp mtu 4470B
attr unit B
par MultiCell.server.ppp[0].ppp stopOperationExtraTime -1s
attr unit s
par MultiCell.server.ppp[0].ppp stopOperationTimeout 2s
attr unit s
scalar MultiCell.server.ppp[0].ppp transmissionState:timeavg 0
attr interpolationmode sample-hold
attr recordingmode timeavg
attr source transmissionStateChanged
attr title "tx state, timeavg"
scalar MultiCell.server.ppp[0].ppp rxPkOk:count 0
attr interpolationmode none
attr recordingmode count
attr source rxPkOk
attr title "packets received OK, count"
scalar MultiCell.server.ppp[0].ppp rxPkOk:sum(packetBytes) 0
attr interpolationmode none
attr recordingmode sum(packetBytes)
attr source rxPkOk
attr title "packets received OK, sum(packetBytes)"
scalar MultiCell.server.ppp[0].ppp txPk:count 0
attr interpolationmode none
attr recordingmode count
attr source packetSentToLower
attr title "packets transmitted, count"
scalar MultiCell.server.ppp[0].ppp txPk:sum(packetBytes) 0
attr interpolationmode none
attr recordingmode sum(packetBytes)
attr source packetSentToLower
attr title "packets transmitted, sum(packetBytes)"
scalar MultiCell.server.ppp[0].ppp rcvdPkFromHl:count 0
attr interpolationmode none
attr recordingmode count
attr source packetReceivedFromUpper
attr title "packets received from higher layer, count"
scalar MultiCell.server.ppp[0].ppp rcvdPkFromHl:sum(packetBytes) 0
attr interpolationmode none
attr recordingmode sum(packetBytes)
attr source packetReceivedFromUpper
attr title "packets received from higher layer, sum(packetBytes)"
scalar MultiCell.server.ppp[0].ppp passedUpPk:count 0
attr interpolationmode none
attr recordingmode count
attr source packetSentToUpper
attr title "packets passed to higher layer, count"
scalar MultiCell.server.ppp[0].ppp passedUpPk:sum(packetBytes) 0
attr interpolationmode none
attr recordingmode sum(packetBytes)
attr source packetSentToUpper
attr title "packets passed to higher layer, sum(packetBytes)"
scalar MultiCell.server.ppp[0].ppp packetDropIncorrectlyReceived:count 0
attr interpolationmode none
attr recordingmode count
attr source packetDropReasonIsIncorrectlyReceived(packetDropped)
attr title "packet drop: incorrectly received, count"
scalar MultiCell.server.ppp[0].ppp packetDropIncorrectlyReceived:sum(packetBytes) 0
attr interpolationmode none
attr recordingmode sum(packetBytes)
attr source packetDropReasonIsIncorrectlyReceived(packetDropped)
attr title "packet drop: incorrectly received, sum(packetBytes)"
scalar MultiCell.server.ppp[0].ppp packetDropInterfaceDown:count 0
attr interpolationmode none
attr recordingmode count
attr source packetDropReasonIsInterfaceDown(packetDropped)
attr title "packet drop: interface down, count"
scalar MultiCell.server.ppp[0].ppp packetDropInterfaceDown:sum(packetBytes) 0
attr interpolationmode none
attr recordingmode sum(packetBytes)
attr source packetDropReasonIsInterfaceDown(packetDropped)
attr title "packet drop: interface down, sum(packetBytes)"
par MultiCell.server.ppp[0] typename "\"inet.linklayer.ppp.PppInterface\""
par MultiCell.server.ppp[0] displayStringTextFormat "\"%a (%i)\\n%m\""
par MultiCell.server.ppp[0] recordPcap false
par MultiCell.server.ppp[0] numPcapRecorders 0
par MultiCell.server.ppp[0] interfaceTableModule "\"MultiCell.server.interfaceTable\""
scalar MultiCell.server.ppp[0] packetDropInterfaceDown:count 0
attr interpolationmode none
attr recordingmode count
attr source packetDropReasonIsInterfaceDown(packetDropped)
attr title "packet drops: interface down, count"
scalar MultiCell.server.ppp[0] packetDropInterfaceDown:sum(packetBytes) 0
attr interpolationmode none
attr recordingmode sum(packetBytes)
attr source packetDropReasonIsInterfaceDown(packetDropped)
attr title "packet drops: interface down, sum(packetBytes)"
scalar MultiCell.server.ppp[0] packetDropNoCarrier:count 0
attr interpolationmode none
attr recordingmode count
attr source packetDropReasonIsNoCarrier(packetDropped)
attr title "packet drops: no carrier, count"
scalar MultiCell.server.ppp[0] packetDropNoCarrier:sum(packetBytes) 0
attr interpolationmode none
attr recordingmode sum(packetBytes)
attr source packetDropReasonIsNoCarrier(packetDropped)
attr title "packet drops: no carrier, sum(packetBytes)"
par MultiCell.server.ipv4.transportIn.channel typename "\"ned.IdealChannel\""
par MultiCell.server.ipv4.up.out[0].channel typename "\"ned.IdealChannel\""
par MultiCell.server.ipv4.lp.out[2].channel typename "\"ned.IdealChannel\""
par MultiCell.server.ipv4.ifIn.channel typename "\"ned.IdealChannel\""
par MultiCell.server.ipv4.configurator typename "\"inet.networklayer.configurator.ipv4.Ipv4NodeConfigurator\""
par MultiCell.server.ipv4.configurator interfaceTableModule "\"MultiCell.server.interfaceTable\""
par MultiCell.server.ipv4.configurator routingTableModule "\"MultiCell.server.ipv4.routingTable\""
par MultiCell.server.ipv4.configurator networkConfiguratorModule "\"configurator\""
par MultiCell.server.ipv4.configurator configureRoutingTable true
par MultiCell.server.ipv4.routingTable typename "\"inet.networklayer.ipv4.Ipv4RoutingTable\""
par MultiCell.server.ipv4.routingTable interfaceTableModule "\"MultiCell.server.interfaceTable\""
par MultiCell.server.ipv4.routingTable routerId "\"auto\""
par MultiCell.server.ipv4.routingTable netmaskRoutes "\"*\""
par MultiCell.server.ipv4.routingTable forwarding false
par MultiCell.server.ipv4.routingTable multicastForwarding false
par MultiCell.server.ipv4.routingTable useAdminDist false
par MultiCell.server.ipv4.routingTable routingFile "\"\""
par MultiCell.server.ipv4.natTable typename "\"inet.networklayer.ipv4.Ipv4NatTable\""
par MultiCell.server.ipv4.natTable networkProtocolModule "\"^.ip\""
par MultiCell.server.ipv4.natTable config "<config/> at content:1"
par MultiCell.server.ipv4.up typename "\"inet.common.MessageDispatcher\""
par MultiCell.server.ipv4.up displayStringTextFormat "\"processed %p pk (%l)\""
par MultiCell.server.ipv4.up forwardServiceRegistration true
par MultiCell.server.ipv4.up forwardProtocolRegistration true
par MultiCell.server.ipv4.igmp typename "\"inet.networklayer.ipv4.Igmpv2\""
par MultiCell.server.ipv4.igmp interfaceTableModule "\"MultiCell.server.interfaceTable\""
par MultiCell.server.ipv4.igmp routingTableModule "\"MultiCell.server.ipv4.routingTable\""
par MultiCell.server.ipv4.igmp crcMode "\"declared\""
attr enum declared,computed
par MultiCell.server.ipv4.igmp enabled true
par MultiCell.server.ipv4.igmp robustnessVariable 2
par MultiCell.server.ipv4.igmp queryInterval 125s
attr unit s
par MultiCell.server.ipv4.igmp queryResponseInterval 10s
attr unit s
par MultiCell.server.ipv4.igmp groupMembershipInterval 260s
attr unit s
par MultiCell.server.ipv4.igmp otherQuerierPresentInterval 255s
attr unit s
par MultiCell.server.ipv4.igmp startupQueryInterval 31.25s
attr unit s
par MultiCell.server.ipv4.igmp startupQueryCount 2
par MultiCell.server.ipv4.igmp lastMemberQueryInterval 1s
attr unit s
par MultiCell.server.ipv4.igmp lastMemberQueryCount 2
par MultiCell.server.ipv4.igmp unsolicitedReportInterval 10s
attr unit s
par MultiCell.server.ipv4.icmp typename "\"inet.networklayer.ipv4.Icmp\""
par MultiCell.server.ipv4.icmp interfaceTableModule "\"MultiCell.server.interfaceTable\""
par MultiCell.server.ipv4.icmp routingTableModule "\"MultiCell.server.ipv4.routingTable\""
par MultiCell.server.ipv4.icmp crcMode "\"declared\""
attr enum declared,computed
attr mutable ""
par MultiCell.server.ipv4.icmp quoteLength 8B
attr mutable ""
attr unit B
par MultiCell.server.ipv4.mp typename "\"inet.common.MessageDispatcher\""
par MultiCell.server.ipv4.mp displayStringTextFormat "\"processed %p pk (%l)\""
par MultiCell.server.ipv4.mp forwardServiceRegistration true
par MultiCell.server.ipv4.mp forwardProtocolRegistration true
par MultiCell.server.ipv4.ip typename "\"inet.networklayer.ipv4.Ipv4\""
par MultiCell.server.ipv4.ip interfaceTableModule "\"MultiCell.server.interfaceTable\""
par MultiCell.server.ipv4.ip routingTableModule "\"MultiCell.server.ipv4.routingTable\""
par MultiCell.server.ipv4.ip arpModule "\"MultiCell.server.ipv4.arp\""
par MultiCell.server.ipv4.ip icmpModule "\"MultiCell.server.ipv4.icmp\""
par MultiCell.server.ipv4.ip crcMode "\"declared\""
attr enum declared,computed
par MultiCell.server.ipv4.ip timeToLive 32
par MultiCell.server.ipv4.ip multicastTimeToLive 32
par MultiCell.server.ipv4.ip fragmentTimeout 60s
attr unit s
par MultiCell.server.ipv4.ip limitedBroadcast false
par MultiCell.server.ipv4.ip directBroadcastInterfaces "\"\""
scalar MultiCell.server.ipv4.ip packetDropAddressResolutionFailed:count 0
attr interpolationmode none
attr recordingmode count
attr source packetDropReasonIsAddressResolutionFailed(packetDropped)
attr title "packet drop: address resolution failed, count"
scalar MultiCell.server.ipv4.ip packetDropAddressResolutionFailed:sum(packetBytes) 0
attr interpolationmode none
attr recordingmode sum(packetBytes)
attr source packetDropReasonIsAddressResolutionFailed(packetDropped)
attr title "packet drop: address resolution failed, sum(packetBytes)"
scalar MultiCell.server.ipv4.ip packetDropHopLimitReached:count 0
attr interpolationmode none
attr recordingmode count
attr source packetDropReasonIsHopLimitReached(packetDropped)
attr title "packet drop: hop limit reached, count"
scalar MultiCell.server.ipv4.ip packetDropHopLimitReached:sum(packetBytes) 0
attr interpolationmode none
attr recordingmode sum(packetBytes)
attr source packetDropReasonIsHopLimitReached(packetDropped)
attr title "packet drop: hop limit reached, sum(packetBytes)"
scalar MultiCell.server.ipv4.ip packetDropForwardingDisabled:count 0
attr interpolationmode none
attr recordingmode count
attr source packetDropReasonIsForwardingDisabled(packetDropped)
attr title "packet drop: forwarding disabled, count"
scalar MultiCell.server.ipv4.ip packetDropForwardingDisabled:sum(packetBytes) 0
attr interpolationmode none
attr recordingmode sum(packetBytes)
attr source packetDropReasonIsForwardingDisabled(packetDropped)
attr title "packet drop: forwarding disabled, sum(packetBytes)"
scalar MultiCell.server.ipv4.ip packetDropNoInterfaceFound:count 0
attr interpolationmode none
attr recordingmode count
attr source packetDropReasonIsNoInterfaceFound(packetDropped)
attr title "packet drop: no interface found, count"
scalar MultiCell.server.ipv4.ip packetDropNoInterfaceFound:sum(packetBytes) 0
attr interpolationmode none
attr recordingmode sum(packetBytes)
attr source packetDropReasonIsNoInterfaceFound(packetDropped)
attr title "packet drop: no interface found, sum(packetBytes)"
scalar MultiCell.server.ipv4.ip packetDropNoRouteFound:count 0
attr interpolationmode none
attr recordingmode count
attr source packetDropReasonIsNoRouteFound(packetDropped)
attr title "packet drop: no route found, count"
scalar MultiCell.server.ipv4.ip packetDropNoRouteFound:sum(packetBytes) 0
attr interpolationmode none
attr recordingmode sum(packetBytes)
attr source packetDropReasonIsNoRouteFound(packetDropped)
attr title "packet drop: no route found, sum(packetBytes)"
scalar MultiCell.server.ipv4.ip packetDropUndefined:count 0
attr interpolationmode none
attr recordingmode count
attr source packetDropReasonIsUndefined(packetDropped)
attr title "packet drop: undefined, count"
scalar MultiCell.server.ipv4.ip packetDropUndefined:sum(packetBytes) 0
attr interpolationmode none
attr recordingmode sum(packetBytes)
attr source packetDropReasonIsUndefined(packetDropped)
attr title "packet drop: undefined, sum(packetBytes)"
par MultiCell.server.ipv4.arp typename "\"inet.networklayer.arp.ipv4.Arp\""
par MultiCell.server.ipv4.arp interfaceTableModule "\"MultiCell.server.interfaceTable\""
par MultiCell.server.ipv4.arp routingTableModule "\"MultiCell.server.ipv4.routingTable\""
par MultiCell.server.ipv4.arp retryTimeout 1s
attr unit s
par MultiCell.server.ipv4.arp retryCount 3
par MultiCell.server.ipv4.arp cacheTimeout 120s
attr unit s
par MultiCell.server.ipv4.arp proxyArpInterfaces "\"\""
scalar MultiCell.server.ipv4.arp arpResolutionFailed:count 0
attr recordingmode count
attr title "ARP failed resolutions, count"
scalar MultiCell.server.ipv4.arp arpResolutionCompleted:count 0
attr recordingmode count
attr title "ARP completed resolutions, count"
scalar MultiCell.server.ipv4.arp arpResolutionInitiated:count 0
attr recordingmode count
attr title "ARP initiated resolutions, count"
scalar MultiCell.server.ipv4.arp arpReplySent:count 0
attr recordingmode count
attr source arpReplySent
attr title "ARP replies sent, count"
scalar MultiCell.server.ipv4.arp arpReplySent:sum(packetBytes) 0
attr recordingmode sum(packetBytes)
attr source arpReplySent
attr title "ARP replies sent, sum(packetBytes)"
scalar MultiCell.server.ipv4.arp arpRequestSent:count 0
attr recordingmode count
attr source arpRequestSent
attr title "ARP request sent, count"
scalar MultiCell.server.ipv4.arp arpRequestSent:sum(packetBytes) 0
attr recordingmode sum(packetBytes)
attr source arpRequestSent
attr title "ARP request sent, sum(packetBytes)"
par MultiCell.server.ipv4.lp typename "\"inet.common.MessageDispatcher\""
par MultiCell.server.ipv4.lp displayStringTextFormat "\"processed %p pk (%l)\""
par MultiCell.server.ipv4.lp forwardServiceRegistration true
par MultiCell.server.ipv4.lp forwardProtocolRegistration true
par MultiCell.server.ipv4 typename "\"inet.networklayer.ipv4.Ipv4NetworkLayer\""
par MultiCell.server.ipv4 forwarding false
par MultiCell.server.ipv4 multicastForwarding false
par MultiCell.server.ipv4 interfaceTableModule "\"MultiCell.server.interfaceTable\""
par MultiCell.server.ipv4 displayStringTextFormat "\"%i\""
par MultiCell.server.nl typename "\"inet.common.MessageDispatcher\""
par MultiCell.server.nl displayStringTextFormat "\"processed %p pk (%l)\""
par MultiCell.server.nl forwardServiceRegistration true
par MultiCell.server.nl forwardProtocolRegistration true
par MultiCell.server.udp typename "\"inet.transportlayer.udp.Udp\""
par MultiCell.server.udp interfaceTableModule "\"MultiCell.server.interfaceTable\""
par MultiCell.server.udp icmpModule "\"^.ipv4.icmp\""
par MultiCell.server.udp icmpv6Module "\"^.ipv6.icmpv6\""
par MultiCell.server.udp crcMode "\"declared\""
attr enum disabled,declared,computed
par MultiCell.server.udp defaultMulticastLoop true
scalar MultiCell.server.udp packetReceived:count 0
attr interpolationmode none
attr recordingmode count
attr source packetReceived
attr title "packets received, count"
scalar MultiCell.server.udp packetReceived:sum(packetBytes) 0
attr interpolationmode none
attr recordingmode sum(packetBytes)
attr source packetReceived
attr title "packets received, sum(packetBytes)"
scalar MultiCell.server.udp packetSent:count 0
attr interpolationmode none
attr recordingmode count
attr source packetSent
attr title "packets sent, count"
scalar MultiCell.server.udp packetSent:sum(packetBytes) 0
attr interpolationmode none
attr recordingmode sum(packetBytes)
attr source packetSent
attr title "packets sent, sum(packetBytes)"
scalar MultiCell.server.udp passedUpPk:count 0
attr interpolationmode none
attr recordingmode count
attr source packetSentToUpper
attr title "packets passed up, count"
scalar MultiCell.server.udp droppedPkWrongPort:count 0
attr interpolationmode none
attr recordingmode count
attr source packetDropReasonIsNoPortFound(packetDropped)
attr title "packets dropped (wrong port), count"
scalar MultiCell.server.udp droppedPkBadChecksum:count 0
attr interpolationmode none
attr recordingmode count
attr source packetDropReasonIsIncorrectlyReceived(packetDropped)
attr title "packets dropped (checksum error), count"
par MultiCell.server.tcp typename "\"inet.transportlayer.tcp.Tcp\""
par MultiCell.server.tcp crcMode "\"declared\""
attr enum declared,computed
par MultiCell.server.tcp advertisedWindow 7504
par MultiCell.server.tcp delayedAcksEnabled false
par MultiCell.server.tcp nagleEnabled true
par MultiCell.server.tcp limitedTransmitEnabled false
par MultiCell.server.tcp increasedIWEnabled false
par MultiCell.server.tcp sackSupport false
par MultiCell.server.tcp windowScalingSupport false
par MultiCell.server.tcp windowScalingFactor -1
par MultiCell.server.tcp timestampSupport false
par MultiCell.server.tcp mss 536
par MultiCell.server.tcp msl 120s
attr unit s
par MultiCell.server.tcp tcpAlgorithmClass "\"TcpReno\""
attr enum TcpVegas,TcpWestwood,TcpNewReno,TcpReno,TcpTahoe,TcpNoCongestionControl
par MultiCell.server.tcp useDataNotification false
par MultiCell.server.tcp dupthresh 3
par MultiCell.server.tcp initialSsthresh 4294967295
par MultiCell.server.tcp stopOperationExtraTime 0s
attr unit s
par MultiCell.server.tcp stopOperationTimeout 2s
attr unit s
par MultiCell.server.tcp ecnWillingness false
par MultiCell.server.tcp dctcpGamma 0.0625
par MultiCell.server.tn typename "\"inet.common.MessageDispatcher\""
par MultiCell.server.tn displayStringTextFormat "\"processed %p pk (%l)\""
par MultiCell.server.tn forwardServiceRegistration true
par MultiCell.server.tn forwardProtocolRegistration true
par MultiCell.server.at typename "\"inet.common.MessageDispatcher\""
par MultiCell.server.at displayStringTextFormat "\"processed %p pk (%l)\""
par MultiCell.server.at forwardServiceRegistration true
par MultiCell.server.at forwardProtocolRegistration true
par MultiCell.server typename "\"inet.node.inet.StandardHost\""
par MultiCell.server hasStatus false
par MultiCell.server osgModel "\"\""
par MultiCell.server osgModelColor "\"\""
par MultiCell.server canvasImage "\"\""
par MultiCell.server canvasImageColor "\"\""
par MultiCell.server recordPcap false
par MultiCell.server numPcapRecorders 0
par MultiCell.server numLoInterfaces 1
par MultiCell.server numWlanInterfaces 0
par MultiCell.server numEthInterfaces 0
par MultiCell.server numPppInterfaces 0
par MultiCell.server numTunInterfaces 0
par MultiCell.server numVirtInterfaces 0
par MultiCell.server fcsMode "\"declared\""
attr enum declared,computed
par MultiCell.server hasIpv4 true
par MultiCell.server hasIpv6 false
par MultiCell.server hasGn false
par MultiCell.server forwarding false
par MultiCell.server multicastForwarding false
par MultiCell.server hasUdp true
par MultiCell.server hasTcp true
par MultiCell.server hasSctp false
par MultiCell.server numApps 0
par MultiCell.upf.pppg$i[0].channel typename "\"ned.IdealChannel\""
par MultiCell.upf.ppp[0].phys$o.channel typename "\"ned.IdealChannel\""
par MultiCell.upf.pppg$i[1].channel typename "\"ned.IdealChannel\""
par MultiCell.upf.ppp[1].phys$o.channel typename "\"ned.IdealChannel\""
par MultiCell.upf.pppg$i[2].channel typename "\"ned.IdealChannel\""
par MultiCell.upf.ppp[2].phys$o.channel typename "\"ned.IdealChannel\""
par MultiCell.upf.interfaceTable typename "\"inet.networklayer.common.InterfaceTable\""
par MultiCell.upf.interfaceTable displayAddresses false
par MultiCell.upf.cb typename "\"inet.common.MessageDispatcher\""
par MultiCell.upf.cb displayStringTextFormat "\"processed %p pk (%l)\""
par MultiCell.upf.cb forwardServiceRegistration true
par MultiCell.upf.cb forwardProtocolRegistration true
par MultiCell.upf.bl typename "\"inet.common.MessageDispatcher\""
par MultiCell.upf.bl displayStringTextFormat "\"processed %p pk (%l)\""
par MultiCell.upf.bl forwardServiceRegistration true
par MultiCell.upf.bl forwardProtocolRegistration true
par MultiCell.upf.li typename "\"inet.common.MessageDispatcher\""
par MultiCell.upf.li displayStringTextFormat "\"processed %p pk (%l)\""
par MultiCell.upf.li forwardServiceRegistration true
par MultiCell.upf.li forwardProtocolRegistration true
par MultiCell.upf.lo[0].upperLayerIn.channel typename "\"ned.IdealChannel\""
par MultiCell.upf.lo[0].lo.upperLayerOut.channel typename "\"ned.IdealChannel\""
par MultiCell.upf.lo[0].lo typename "\"inet.linklayer.loopback.Loopback\""
par MultiCell.upf.lo[0].lo interfaceTableModule "\"MultiCell.upf.interfaceTable\""
par MultiCell.upf.lo[0].lo mtu 4470B
attr unit B
scalar MultiCell.upf.lo[0].lo rcvdPkFromHl:count 0
attr interpolationmode none
attr recordingmode count
attr source packetReceivedFromUpper
attr title "packets received from higher layer, count"
scalar MultiCell.upf.lo[0].lo rcvdPkFromHl:sum(packetBytes) 0
attr interpolationmode none
attr recordingmode sum(packetBytes)
attr source packetReceivedFromUpper
attr title "packets received from higher layer, sum(packetBytes)"
scalar MultiCell.upf.lo[0].lo passedUpPk:count 0
attr interpolationmode none
attr recordingmode count
attr source packetSentToUpper
attr title "packets passed to higher layer, count"
scalar MultiCell.upf.lo[0].lo passedUpPk:sum(packetBytes) 0
attr interpolationmode none
attr recordingmode sum(packetBytes)
attr source packetSentToUpper
attr title "packets passed to higher layer, sum(packetBytes)"
par MultiCell.upf.lo[0] typename "\"inet.linklayer.loopback.LoopbackInterface\""
par MultiCell.upf.lo[0] displayStringTextFormat "\"%a (%i)\\n%m\""
par MultiCell.upf.lo[0] recordPcap false
par MultiCell.upf.lo[0] numPcapRecorders 0
par MultiCell.upf.lo[0] interfaceTableModule "\"MultiCell.upf.interfaceTable\""
scalar MultiCell.upf.lo[0] packetDropInterfaceDown:count 0
attr interpolationmode none
attr recordingmode count
attr source packetDropReasonIsInterfaceDown(packetDropped)
attr title "packet drops: interface down, count"
scalar MultiCell.upf.lo[0] packetDropInterfaceDown:sum(packetBytes) 0
attr interpolationmode none
attr recordingmode sum(packetBytes)
attr source packetDropReasonIsInterfaceDown(packetDropped)
attr title "packet drops: interface down, sum(packetBytes)"
scalar MultiCell.upf.lo[0] packetDropNoCarrier:count 0
attr interpolationmode none
attr recordingmode count
attr source packetDropReasonIsNoCarrier(packetDropped)
attr title "packet drops: no carrier, count"
scalar MultiCell.upf.lo[0] packetDropNoCarrier:sum(packetBytes) 0
attr interpolationmode none
attr recordingmode sum(packetBytes)
attr source packetDropReasonIsNoCarrier(packetDropped)
attr title "packet drops: no carrier, sum(packetBytes)"
par MultiCell.upf.ppp[0].phys$i.channel typename "\"ned.IdealChannel\""
par MultiCell.upf.ppp[0].ppp.phys$o.channel typename "\"ned.IdealChannel\""
par MultiCell.upf.ppp[0].ppp.upperLayerOut.channel typename "\"ned.IdealChannel\""
par MultiCell.upf.ppp[0].upperLayerIn.channel typename "\"ned.IdealChannel\""
par MultiCell.upf.ppp[0].queue typename "\"inet.queueing.queue.DropTailQueue\""
par MultiCell.upf.ppp[0].queue displayStringTextFormat "\"contains %p pk (%l) pushed %u\\npulled %o removed %r dropped %d\""
par MultiCell.upf.ppp[0].queue packetCapacity 10000
par MultiCell.upf.ppp[0].queue dataCapacity -1b
attr unit b
par MultiCell.upf.ppp[0].queue dropperClass "\"inet::queueing::PacketAtCollectionEndDropper\""
par MultiCell.upf.ppp[0].queue comparatorClass "\"\""
par MultiCell.upf.ppp[0].queue bufferModule "\"\""
scalar MultiCell.upf.ppp[0].queue queueLength:last nan
attr autoWarmupFilter false
attr interpolationmode sample-hold
attr recordingmode last
attr source "warmup(atomic(constant0(packetPushEnded) + count(packetPushStarted) - count(packetPulled) - count(packetRemoved) - count(packetDropped)))"
attr title "queue length, last"
attr unit pk
scalar MultiCell.upf.ppp[0].queue queueLength:max -nan
attr autoWarmupFilter false
attr interpolationmode sample-hold
attr recordingmode max
attr source "warmup(atomic(constant0(packetPushEnded) + count(packetPushStarted) - count(packetPulled) - count(packetRemoved) - count(packetDropped)))"
attr title "queue length, max"
attr unit pk
scalar MultiCell.upf.ppp[0].queue queueLength:timeavg -nan
attr autoWarmupFilter false
attr interpolationmode sample-hold
attr recordingmode timeavg
attr source "warmup(atomic(constant0(packetPushEnded) + count(packetPushStarted) - count(packetPulled) - count(packetRemoved) - count(packetDropped)))"
attr title "queue length, timeavg"
attr unit pk
scalar MultiCell.upf.ppp[0].queue queueBitLength:last nan
attr autoWarmupFilter false
attr interpolationmode sample-hold
attr recordingmode last
attr source "warmup(atomic(constant0(packetPushEnded) + sum(packetLength(packetPushStarted)) - sum(packetLength(packetPulled)) - sum(packetLength(packetRemoved)) - sum(packetLength(packetDropped))))"
attr title "queue bit length, last"
attr unit b
scalar MultiCell.upf.ppp[0].queue queueBitLength:max -nan
attr autoWarmupFilter false
attr interpolationmode sample-hold
attr recordingmode max
attr source "warmup(atomic(constant0(packetPushEnded) + sum(packetLength(packetPushStarted)) - sum(packetLength(packetPulled)) - sum(packetLength(packetRemoved)) - sum(packetLength(packetDropped))))"
attr title "queue bit length, max"
attr unit b
scalar MultiCell.upf.ppp[0].queue queueBitLength:timeavg -nan
attr autoWarmupFilter false
attr interpolationmode sample-hold
attr recordingmode timeavg
attr source "warmup(atomic(constant0(packetPushEnded) + sum(packetLength(packetPushStarted)) - sum(packetLength(packetPulled)) - sum(packetLength(packetRemoved)) - sum(packetLength(packetDropped))))"
attr title "queue bit length, timeavg"
attr unit b
statistic MultiCell.upf.ppp[0].queue queueingTime:histogram
field count 0
field mean -nan
field stddev -nan
field min -nan
field max -nan
field sum 0
field sqrsum 0
attr interpolationmode none
attr recordingmode histogram
attr source queueingTime(packetPulled)
attr title "queueing times"
attr unit s
bin	-inf	0
bin	0	0
bin	1	0
scalar MultiCell.upf.ppp[0].queue outgoingPackets:count 0
attr recordingmode count
attr source packetPulled
attr title "outgoing packets, count"
attr unit pk
scalar MultiCell.upf.ppp[0].queue outgoingPacketLengths:sum 0
attr interpolationmode none
attr recordingmode sum
attr source packetLength(packetPulled)
attr title "outgoing packet lengths, sum"
attr unit b
statistic MultiCell.upf.ppp[0].queue outgoingPacketLengths:histogram
field count 0
field mean -nan
field stddev -nan
field min -nan
field max -nan
field sum 0
field sqrsum 0
attr interpolationmode none
attr recordingmode histogram
attr source packetLength(packetPulled)
attr title "outgoing packet lengths"
attr unit b
bin	-inf	0
bin	0	0
bin	1	0
statistic MultiCell.upf.ppp[0].queue flowQueueingTime:histogram
field count 0
field mean -nan
field stddev -nan
field min -nan
field max -nan
field sum 0
field sqrsum 0
attr interpolationmode none
attr recordingmode histogram
attr source queueingTime(demuxFlow(packetPulled))
attr title "flow queueing times"
attr unit s
bin	-inf	0
bin	0	0
bin	1	0
scalar MultiCell.upf.ppp[0].queue incomingPackets:count 0
attr recordingmode count
attr source packetPushStarted
attr title "incoming packets, count"
attr unit pk
scalar MultiCell.upf.ppp[0].queue incomingPacketLengths:sum 0
attr interpolationmode none
attr recordingmode sum
attr source packetLength(packetPushStarted)
attr title "incoming packet lengths, sum"
attr unit b
statistic MultiCell.upf.ppp[0].queue incomingPacketLengths:histogram
field count 0
field mean -nan
field stddev -nan
field min -nan
field max -nan
field sum 0
field sqrsum 0
attr interpolationmode none
attr recordingmode histogram
attr source packetLength(packetPushStarted)
attr title "incoming packet lengths"
attr unit b
bin	-inf	0
bin	0	0
bin	1	0
scalar MultiCell.upf.ppp[0].queue droppedPacketsQueueOverflow:count 0
attr interpolationmode none
attr recordingmode count
attr source packetDropReasonIsQueueOverflow(packetDropped)
attr title "dropped packets: queue overflow, count"
attr unit pk
scalar MultiCell.upf.ppp[0].queue droppedPacketLengthsQueueOverflow:sum 0
attr interpolationmode none
attr recordingmode sum
attr source packetLength(packetDropReasonIsQueueOverflow(packetDropped))
attr title "dropped packet lengths: queue overflow, sum"
attr unit b
par MultiCell.upf.ppp[0].ppp typename "\"inet.linklayer.ppp.Ppp\""
par MultiCell.upf.ppp[0].ppp interfaceTableModule "\"MultiCell.upf.interfaceTable\""
par MultiCell.upf.ppp[0].ppp displayStringTextFormat "\"rate: %b\\nsent: %s, rcvd: %r\\nqueue: %q, drop: %d\""
par MultiCell.upf.ppp[0].ppp sendRawBytes false
par MultiCell.upf.ppp[0].ppp mtu 4470B
attr unit B
par MultiCell.upf.ppp[0].ppp stopOperationExtraTime -1s
attr unit s
par MultiCell.upf.ppp[0].ppp stopOperationTimeout 2s
attr unit s
scalar MultiCell.upf.ppp[0].ppp transmissionState:timeavg 0
attr interpolationmode sample-hold
attr recordingmode timeavg
attr source transmissionStateChanged
attr title "tx state, timeavg"
scalar MultiCell.upf.ppp[0].ppp rxPkOk:count 0
attr interpolationmode none
attr recordingmode count
attr source rxPkOk
attr title "packets received OK, count"
scalar MultiCell.upf.ppp[0].ppp rxPkOk:sum(packetBytes) 0
attr interpolationmode none
attr recordingmode sum(packetBytes)
attr source rxPkOk
attr title "packets received OK, sum(packetBytes)"
scalar MultiCell.upf.ppp[0].ppp txPk:count 0
attr interpolationmode none
attr recordingmode count
attr source packetSentToLower
attr title "packets transmitted, count"
scalar MultiCell.upf.ppp[0].ppp txPk:sum(packetBytes) 0
attr interpolationmode none
attr recordingmode sum(packetBytes)
attr source packetSentToLower
attr title "packets transmitted, sum(packetBytes)"
scalar MultiCell.upf.ppp[0].ppp rcvdPkFromHl:count 0
attr interpolationmode none
attr recordingmode count
attr source packetReceivedFromUpper
attr title "packets received from higher layer, count"
scalar MultiCell.upf.ppp[0].ppp rcvdPkFromHl:sum(packetBytes) 0
attr interpolationmode none
attr recordingmode sum(packetBytes)
attr source packetReceivedFromUpper
attr title "packets received from higher layer, sum(packetBytes)"
scalar MultiCell.upf.ppp[0].ppp passedUpPk:count 0
attr interpolationmode none
attr recordingmode count
attr source packetSentToUpper
attr title "packets passed to higher layer, count"
scalar MultiCell.upf.ppp[0].ppp passedUpPk:sum(packetBytes) 0
attr interpolationmode none
attr recordingmode sum(packetBytes)
attr source packetSentToUpper
attr title "packets passed to higher layer, sum(packetBytes)"
scalar MultiCell.upf.ppp[0].ppp packetDropIncorrectlyReceived:count 0
attr interpolationmode none
attr recordingmode count
attr source packetDropReasonIsIncorrectlyReceived(packetDropped)
attr title "packet drop: incorrectly received, count"
scalar MultiCell.upf.ppp[0].ppp packetDropIncorrectlyReceived:sum(packetBytes) 0
attr interpolationmode none
attr recordingmode sum(packetBytes)
attr source packetDropReasonIsIncorrectlyReceived(packetDropped)
attr title "packet drop: incorrectly received, sum(packetBytes)"
scalar MultiCell.upf.ppp[0].ppp packetDropInterfaceDown:count 0
attr interpolationmode none
attr recordingmode count
attr source packetDropReasonIsInterfaceDown(packetDropped)
attr title "packet drop: interface down, count"
scalar MultiCell.upf.ppp[0].ppp packetDropInterfaceDown:sum(packetBytes) 0
attr interpolationmode none
attr recordingmode sum(packetBytes)
attr source packetDropReasonIsInterfaceDown(packetDropped)
attr title "packet drop: interface down, sum(packetBytes)"
par MultiCell.upf.ppp[0] typename "\"inet.linklayer.ppp.PppInterface\""
par MultiCell.upf.ppp[0] displayStringTextFormat "\"%a (%i)\\n%m\""
par MultiCell.upf.ppp[0] recordPcap false
par MultiCell.upf.ppp[0] numPcapRecorders 0
par MultiCell.upf.ppp[0] interfaceTableModule "\"MultiCell.upf.interfaceTable\""
scalar MultiCell.upf.ppp[0] packetDropInterfaceDown:count 0
attr interpolationmode none
attr recordingmode count
attr source packetDropReasonIsInterfaceDown(packetDropped)
attr title "packet drops: interface down, count"
scalar MultiCell.upf.ppp[0] packetDropInterfaceDown:sum(packetBytes) 0
attr interpolationmode none
attr recordingmode sum(packetBytes)
attr source packetDropReasonIsInterfaceDown(packetDropped)
attr title "packet drops: interface down, sum(packetBytes)"
scalar MultiCell.upf.ppp[0] packetDropNoCarrier:count 0
attr interpolationmode none
attr recordingmode count
attr source packetDropReasonIsNoCarrier(packetDropped)
attr title "packet drops: no carrier, count"
scalar MultiCell.upf.ppp[0] packetDropNoCarrier:sum(packetBytes) 0
attr interpolationmode none
attr recordingmode sum(packetBytes)
attr source packetDropReasonIsNoCarrier(packetDropped)
attr title "packet drops: no carrier, sum(packetBytes)"
par MultiCell.upf.ppp[1].phys$i.channel typename "\"ned.IdealChannel\""
par MultiCell.upf.ppp[1].ppp.phys$o.channel typename "\"ned.IdealChannel\""
par MultiCell.upf.ppp[1].ppp.upperLayerOut.channel typename "\"ned.IdealChannel\""
par MultiCell.upf.ppp[1].upperLayerIn.channel typename "\"ned.IdealChannel\""
par MultiCell.upf.ppp[1].queue typename "\"inet.queueing.queue.DropTailQueue\""
par MultiCell.upf.ppp[1].queue displayStringTextFormat "\"contains %p pk (%l) pushed %u\\npulled %o removed %r dropped %d\""
par MultiCell.upf.ppp[1].queue packetCapacity 10000
par MultiCell.upf.ppp[1].queue dataCapacity -1b
attr unit b
par MultiCell.upf.ppp[1].queue dropperClass "\"inet::queueing::PacketAtCollectionEndDropper\""
par MultiCell.upf.ppp[1].queue comparatorClass "\"\""
par MultiCell.upf.ppp[1].queue bufferModule "\"\""
scalar MultiCell.upf.ppp[1].queue queueLength:last nan
attr autoWarmupFilter false
attr interpolationmode sample-hold
attr recordingmode last
attr source "warmup(atomic(constant0(packetPushEnded) + count(packetPushStarted) - count(packetPulled) - count(packetRemoved) - count(packetDropped)))"
attr title "queue length, last"
attr unit pk
scalar MultiCell.upf.ppp[1].queue queueLength:max -nan
attr autoWarmupFilter false
attr interpolationmode sample-hold
attr recordingmode max
attr source "warmup(atomic(constant0(packetPushEnded) + count(packetPushStarted) - count(packetPulled) - count(packetRemoved) - count(packetDropped)))"
attr title "queue length, max"
attr unit pk
scalar MultiCell.upf.ppp[1].queue queueLength:timeavg -nan
attr autoWarmupFilter false
attr interpolationmode sample-hold
attr recordingmode timeavg
attr source "warmup(atomic(constant0(packetPushEnded) + count(packetPushStarted) - count(packetPulled) - count(packetRemoved) - count(packetDropped)))"
attr title "queue length, timeavg"
attr unit pk
scalar MultiCell.upf.ppp[1].queue queueBitLength:last nan
attr autoWarmupFilter false
attr interpolationmode sample-hold
attr recordingmode last
attr source "warmup(atomic(constant0(packetPushEnded) + sum(packetLength(packetPushStarted)) - sum(packetLength(packetPulled)) - sum(packetLength(packetRemoved)) - sum(packetLength(packetDropped))))"
attr title "queue bit length, last"
attr unit b
scalar MultiCell.upf.ppp[1].queue queueBitLength:max -nan
attr autoWarmupFilter false
attr interpolationmode sample-hold
attr recordingmode max
attr source "warmup(atomic(constant0(packetPushEnded) + sum(packetLength(packetPushStarted)) - sum(packetLength(packetPulled)) - sum(packetLength(packetRemoved)) - sum(packetLength(packetDropped))))"
attr title "queue bit length, max"
attr unit b
scalar MultiCell.upf.ppp[1].queue queueBitLength:timeavg -nan
attr autoWarmupFilter false
attr interpolationmode sample-hold
attr recordingmode timeavg
attr source "warmup(atomic(constant0(packetPushEnded) + sum(packetLength(packetPushStarted)) - sum(packetLength(packetPulled)) - sum(packetLength(packetRemoved)) - sum(packetLength(packetDropped))))"
attr title "queue bit length, timeavg"
attr unit b
statistic MultiCell.upf.ppp[1].queue queueingTime:histogram
field count 0
field mean -nan
field stddev -nan
field min -nan
field max -nan
field sum 0
field sqrsum 0
attr interpolationmode none
attr recordingmode histogram
attr source queueingTime(packetPulled)
attr title "queueing times"
attr unit s
bin	-inf	0
bin	0	0
bin	1	0
scalar MultiCell.upf.ppp[1].queue outgoingPackets:count 0
attr recordingmode count
attr source packetPulled
attr title "outgoing packets, count"
attr unit pk
scalar MultiCell.upf.ppp[1].queue outgoingPacketLengths:sum 0
attr interpolationmode none
attr recordingmode sum
attr source packetLength(packetPulled)
attr title "outgoing packet lengths, sum"
attr unit b
statistic MultiCell.upf.ppp[1].queue outgoingPacketLengths:histogram
field count 0
field mean -nan
field stddev -nan
field min -nan
field max -nan
field sum 0
field sqrsum 0
attr interpolationmode none
attr recordingmode histogram
attr source packetLength(packetPulled)
attr title "outgoing packet lengths"
attr unit b
bin	-inf	0
bin	0	0
bin	1	0
statistic MultiCell.upf.ppp[1].queue flowQueueingTime:histogram
field count 0
field mean -nan
field stddev -nan
field min -nan
field max -nan
field sum 0
field sqrsum 0
attr interpolationmode none
attr recordingmode histogram
attr source queueingTime(demuxFlow(packetPulled))
attr title "flow queueing times"
attr unit s
bin	-inf	0
bin	0	0
bin	1	0
scalar MultiCell.upf.ppp[1].queue incomingPackets:count 0
attr recordingmode count
attr source packetPushStarted
attr title "incoming packets, count"
attr unit pk
scalar MultiCell.upf.ppp[1].queue incomingPacketLengths:sum 0
attr interpolationmode none
attr recordingmode sum
attr source packetLength(packetPushStarted)
attr title "incoming packet lengths, sum"
attr unit b
statistic MultiCell.upf.ppp[1].queue incomingPacketLengths:histogram
field count 0
field mean -nan
field stddev -nan
field min -nan
field max -nan
field sum 0
field sqrsum 0
attr interpolationmode none
attr recordingmode histogram
attr source packetLength(packetPushStarted)
attr title "incoming packet lengths"
attr unit b
bin	-inf	0
bin	0	0
bin	1	0
scalar MultiCell.upf.ppp[1].queue droppedPacketsQueueOverflow:count 0
attr interpolationmode none
attr recordingmode count
attr source packetDropReasonIsQueueOverflow(packetDropped)
attr title "dropped packets: queue overflow, count"
attr unit pk
scalar MultiCell.upf.ppp[1].queue droppedPacketLengthsQueueOverflow:sum 0
attr interpolationmode none
attr recordingmode sum
attr source packetLength(packetDropReasonIsQueueOverflow(packetDropped))
attr title "dropped packet lengths: queue overflow, sum"
attr unit b
par MultiCell.upf.ppp[1].ppp typename "\"inet.linklayer.ppp.Ppp\""
par MultiCell.upf.ppp[1].ppp interfaceTableModule "\"MultiCell.upf.interfaceTable\""
par MultiCell.upf.ppp[1].ppp displayStringTextFormat "\"rate: %b\\nsent: %s, rcvd: %r\\nqueue: %q, drop: %d\""
par MultiCell.upf.ppp[1].ppp sendRawBytes false
par MultiCell.upf.ppp[1].ppp mtu 4470B
attr unit B
par MultiCell.upf.ppp[1].ppp stopOperationExtraTime -1s
attr unit s
par MultiCell.upf.ppp[1].ppp stopOperationTimeout 2s
attr unit s
scalar MultiCell.upf.ppp[1].ppp transmissionState:timeavg 0
attr interpolationmode sample-hold
attr recordingmode timeavg
attr source transmissionStateChanged
attr title "tx state, timeavg"
scalar MultiCell.upf.ppp[1].ppp rxPkOk:count 0
attr interpolationmode none
attr recordingmode count
attr source rxPkOk
attr title "packets received OK, count"
scalar MultiCell.upf.ppp[1].ppp rxPkOk:sum(packetBytes) 0
attr interpolationmode none
attr recordingmode sum(packetBytes)
attr source rxPkOk
attr title "packets received OK, sum(packetBytes)"
scalar MultiCell.upf.ppp[1].ppp txPk:count 0
attr interpolationmode none
attr recordingmode count
attr source packetSentToLower
attr title "packets transmitted, count"
scalar MultiCell.upf.ppp[1].ppp txPk:sum(packetBytes) 0
attr interpolationmode none
attr recordingmode sum(packetBytes)
attr source packetSentToLower
attr title "packets transmitted, sum(packetBytes)"
scalar MultiCell.upf.ppp[1].ppp rcvdPkFromHl:count 0
attr interpolationmode none
attr recordingmode count
attr source packetReceivedFromUpper
attr title "packets received from higher layer, count"
scalar MultiCell.upf.ppp[1].ppp rcvdPkFromHl:sum(packetBytes) 0
attr interpolationmode none
attr recordingmode sum(packetBytes)
attr source packetReceivedFromUpper
attr title "packets received from higher layer, sum(packetBytes)"
scalar MultiCell.upf.ppp[1].ppp passedUpPk:count 0
attr interpolationmode none
attr recordingmode count
attr source packetSentToUpper
attr title "packets passed to higher layer, count"
scalar MultiCell.upf.ppp[1].ppp passedUpPk:sum(packetBytes) 0
attr interpolationmode none
attr recordingmode sum(packetBytes)
attr source packetSentToUpper
attr title "packets passed to higher layer, sum(packetBytes)"
scalar MultiCell.upf.ppp[1].ppp packetDropIncorrectlyReceived:count 0
attr interpolationmode none
attr recordingmode count
attr source packetDropReasonIsIncorrectlyReceived(packetDropped)
attr title "packet drop: incorrectly received, count"
scalar MultiCell.upf.ppp[1].ppp packetDropIncorrectlyReceived:sum(packetBytes) 0
attr interpolationmode none
attr recordingmode sum(packetBytes)
attr source packetDropReasonIsIncorrectlyReceived(packetDropped)
attr title "packet drop: incorrectly received, sum(packetBytes)"
scalar MultiCell.upf.ppp[1].ppp packetDropInterfaceDown:count 0
attr interpolationmode none
attr recordingmode count
attr source packetDropReasonIsInterfaceDown(packetDropped)
attr title "packet drop: interface down, count"
scalar MultiCell.upf.ppp[1].ppp packetDropInterfaceDown:sum(packetBytes) 0
attr interpolationmode none
attr recordingmode sum(packetBytes)
attr source packetDropReasonIsInterfaceDown(packetDropped)
attr title "packet drop: interface down, sum(packetBytes)"
par MultiCell.upf.ppp[1] typename "\"inet.linklayer.ppp.PppInterface\""
par MultiCell.upf.ppp[1] displayStringTextFormat "\"%a (%i)\\n%m\""
par MultiCell.upf.ppp[1] recordPcap false
par MultiCell.upf.ppp[1] numPcapRecorders 0
par MultiCell.upf.ppp[1] interfaceTableModule "\"MultiCell.upf.interfaceTable\""
scalar MultiCell.upf.ppp[1] packetDropInterfaceDown:count 0
attr interpolationmode none
attr recordingmode count
attr source packetDropReasonIsInterfaceDown(packetDropped)
attr title "packet drops: interface down, count"
scalar MultiCell.upf.ppp[1] packetDropInterfaceDown:sum(packetBytes) 0
attr interpolationmode none
attr recordingmode sum(packetBytes)
attr source packetDropReasonIsInterfaceDown(packetDropped)
attr title "packet drops: interface down, sum(packetBytes)"
scalar MultiCell.upf.ppp[1] packetDropNoCarrier:count 0
attr interpolationmode none
attr recordingmode count
attr source packetDropReasonIsNoCarrier(packetDropped)
attr title "packet drops: no carrier, count"
scalar MultiCell.upf.ppp[1] packetDropNoCarrier:sum(packetBytes) 0
attr interpolationmode none
attr recordingmode sum(packetBytes)
attr source packetDropReasonIsNoCarrier(packetDropped)
attr title "packet drops: no carrier, sum(packetBytes)"
par MultiCell.upf.ppp[2].phys$i.channel typename "\"ned.IdealChannel\""
par MultiCell.upf.ppp[2].ppp.phys$o.channel typename "\"ned.IdealChannel\""
par MultiCell.upf.ppp[2].ppp.upperLayerOut.channel typename "\"ned.IdealChannel\""
par MultiCell.upf.ppp[2].upperLayerIn.channel typename "\"ned.IdealChannel\""
par MultiCell.upf.ppp[2].queue typename "\"inet.queueing.queue.DropTailQueue\""
par MultiCell.upf.ppp[2].queue displayStringTextFormat "\"contains %p pk (%l) pushed %u\\npulled %o removed %r dropped %d\""
par MultiCell.upf.ppp[2].queue packetCapacity 10000
par MultiCell.upf.ppp[2].queue dataCapacity -1b
attr unit b
par MultiCell.upf.ppp[2].queue dropperClass "\"inet::queueing::PacketAtCollectionEndDropper\""
par MultiCell.upf.ppp[2].queue comparatorClass "\"\""
par MultiCell.upf.ppp[2].queue bufferModule "\"\""
scalar MultiCell.upf.ppp[2].queue queueLength:last nan
attr autoWarmupFilter false
attr interpolationmode sample-hold
attr recordingmode last
attr source "warmup(atomic(constant0(packetPushEnded) + count(packetPushStarted) - count(packetPulled) - count(packetRemoved) - count(packetDropped)))"
attr title "queue length, last"
attr unit pk
scalar MultiCell.upf.ppp[2].queue queueLength:max -nan
attr autoWarmupFilter false
attr interpolationmode sample-hold
attr recordingmode max
attr source "warmup(atomic(constant0(packetPushEnded) + count(packetPushStarted) - count(packetPulled) - count(packetRemoved) - count(packetDropped)))"
attr title "queue length, max"
attr unit pk
scalar MultiCell.upf.ppp[2].queue queueLength:timeavg -nan
attr autoWarmupFilter false
attr interpolationmode sample-hold
attr recordingmode timeavg
attr source "warmup(atomic(constant0(packetPushEnded) + count(packetPushStarted) - count(packetPulled) - count(packetRemoved) - count(packetDropped)))"
attr title "queue length, timeavg"
attr unit pk
scalar MultiCell.upf.ppp[2].queue queueBitLength:last nan
attr autoWarmupFilter false
attr interpolationmode sample-hold
attr recordingmode last
attr source "warmup(atomic(constant0(packetPushEnded) + sum(packetLength(packetPushStarted)) - sum(packetLength(packetPulled)) - sum(packetLength(packetRemoved)) - sum(packetLength(packetDropped))))"
attr title "queue bit length, last"
attr unit b
scalar MultiCell.upf.ppp[2].queue queueBitLength:max -nan
attr autoWarmupFilter false
attr interpolationmode sample-hold
attr recordingmode max
attr source "warmup(atomic(constant0(packetPushEnded) + sum(packetLength(packetPushStarted)) - sum(packetLength(packetPulled)) - sum(packetLength(packetRemoved)) - sum(packetLength(packetDropped))))"
attr title "queue bit length, max"
attr unit b
scalar MultiCell.upf.ppp[2].queue queueBitLength:timeavg -nan
attr autoWarmupFilter false
attr interpolationmode sample-hold
attr recordingmode timeavg
attr source "warmup(atomic(constant0(packetPushEnded) + sum(packetLength(packetPushStarted)) - sum(packetLength(packetPulled)) - sum(packetLength(packetRemoved)) - sum(packetLength(packetDropped))))"
attr title "queue bit length, timeavg"
attr unit b
statistic MultiCell.upf.ppp[2].queue queueingTime:histogram
field count 0
field mean -nan
field stddev -nan
field min -nan
field max -nan
field sum 0
field sqrsum 0
attr interpolationmode none
attr recordingmode histogram
attr source queueingTime(packetPulled)
attr title "queueing times"
attr unit s
bin	-inf	0
bin	0	0
bin	1	0
scalar MultiCell.upf.ppp[2].queue outgoingPackets:count 0
attr recordingmode count
attr source packetPulled
attr title "outgoing packets, count"
attr unit pk
scalar MultiCell.upf.ppp[2].queue outgoingPacketLengths:sum 0
attr interpolationmode none
attr recordingmode sum
attr source packetLength(packetPulled)
attr title "outgoing packet lengths, sum"
attr unit b
statistic MultiCell.upf.ppp[2].queue outgoingPacketLengths:histogram
field count 0
field mean -nan
field stddev -nan
field min -nan
field max -nan
field sum 0
field sqrsum 0
attr interpolationmode none
attr recordingmode histogram
attr source packetLength(packetPulled)
attr title "outgoing packet lengths"
attr unit b
bin	-inf	0
bin	0	0
bin	1	0
statistic MultiCell.upf.ppp[2].queue flowQueueingTime:histogram
field count 0
field mean -nan
field stddev -nan
field min -nan
field max -nan
field sum 0
field sqrsum 0
attr interpolationmode none
attr recordingmode histogram
attr source queueingTime(demuxFlow(packetPulled))
attr title "flow queueing times"
attr unit s
bin	-inf	0
bin	0	0
bin	1	0
scalar MultiCell.upf.ppp[2].queue incomingPackets:count 0
attr recordingmode count
attr source packetPushStarted
attr title "incoming packets, count"
attr unit pk
scalar MultiCell.upf.ppp[2].queue incomingPacketLengths:sum 0
attr interpolationmode none
attr recordingmode sum
attr source packetLength(packetPushStarted)
attr title "incoming packet lengths, sum"
attr unit b
statistic MultiCell.upf.ppp[2].queue incomingPacketLengths:histogram
field count 0
field mean -nan
field stddev -nan
field min -nan
field max -nan
field sum 0
field sqrsum 0
attr interpolationmode none
attr recordingmode histogram
attr source packetLength(packetPushStarted)
attr title "incoming packet lengths"
attr unit b
bin	-inf	0
bin	0	0
bin	1	0
scalar MultiCell.upf.ppp[2].queue droppedPacketsQueueOverflow:count 0
attr interpolationmode none
attr recordingmode count
attr source packetDropReasonIsQueueOverflow(packetDropped)
attr title "dropped packets: queue overflow, count"
attr unit pk
scalar MultiCell.upf.ppp[2].queue droppedPacketLengthsQueueOverflow:sum 0
attr interpolationmode none
attr recordingmode sum
attr source packetLength(packetDropReasonIsQueueOverflow(packetDropped))
attr title "dropped packet lengths: queue overflow, sum"
attr unit b
par MultiCell.upf.ppp[2].ppp typename "\"inet.linklayer.ppp.Ppp\""
par MultiCell.upf.ppp[2].ppp interfaceTableModule "\"MultiCell.upf.interfaceTable\""
par MultiCell.upf.ppp[2].ppp displayStringTextFormat "\"rate: %b\\nsent: %s, rcvd: %r\\nqueue: %q, drop: %d\""
par MultiCell.upf.ppp[2].ppp sendRawBytes false
par MultiCell.upf.ppp[2].ppp mtu 4470B
attr unit B
par MultiCell.upf.ppp[2].ppp stopOperationExtraTime -1s
attr unit s
par MultiCell.upf.ppp[2].ppp stopOperationTimeout 2s
attr unit s
scalar MultiCell.upf.ppp[2].ppp transmissionState:timeavg 0
attr interpolationmode sample-hold
attr recordingmode timeavg
attr source transmissionStateChanged
attr title "tx state, timeavg"
scalar MultiCell.upf.ppp[2].ppp rxPkOk:count 0
attr interpolationmode none
attr recordingmode count
attr source rxPkOk
attr title "packets received OK, count"
scalar MultiCell.upf.ppp[2].ppp rxPkOk:sum(packetBytes) 0
attr interpolationmode none
attr recordingmode sum(packetBytes)
attr source rxPkOk
attr title "packets received OK, sum(packetBytes)"
scalar MultiCell.upf.ppp[2].ppp txPk:count 0
attr interpolationmode none
attr recordingmode count
attr source packetSentToLower
attr title "packets transmitted, count"
scalar MultiCell.upf.ppp[2].ppp txPk:sum(packetBytes) 0
attr interpolationmode none
attr recordingmode sum(packetBytes)
attr source packetSentToLower
attr title "packets transmitted, sum(packetBytes)"
scalar MultiCell.upf.ppp[2].ppp rcvdPkFromHl:count 0
attr interpolationmode none
attr recordingmode count
attr source packetReceivedFromUpper
attr title "packets received from higher layer, count"
scalar MultiCell.upf.ppp[2].ppp rcvdPkFromHl:sum(packetBytes) 0
attr interpolationmode none
attr recordingmode sum(packetBytes)
attr source packetReceivedFromUpper
attr title "packets received from higher layer, sum(packetBytes)"
scalar MultiCell.upf.ppp[2].ppp passedUpPk:count 0
attr interpolationmode none
attr recordingmode count
attr source packetSentToUpper
attr title "packets passed to higher layer, count"
scalar MultiCell.upf.ppp[2].ppp passedUpPk:sum(packetBytes) 0
attr interpolationmode none
attr recordingmode sum(packetBytes)
attr source packetSentToUpper
attr title "packets passed to higher layer, sum(packetBytes)"
scalar MultiCell.upf.ppp[2].ppp packetDropIncorrectlyReceived:count 0
attr interpolationmode none
attr recordingmode count
attr source packetDropReasonIsIncorrectlyReceived(packetDropped)
attr title "packet drop: incorrectly received, count"
scalar MultiCell.upf.ppp[2].ppp packetDropIncorrectlyReceived:sum(packetBytes) 0
attr interpolationmode none
attr recordingmode sum(packetBytes)
attr source packetDropReasonIsIncorrectlyReceived(packetDropped)
attr title "packet drop: incorrectly received, sum(packetBytes)"
scalar MultiCell.upf.ppp[2].ppp packetDropInterfaceDown:count 0
attr interpolationmode none
attr recordingmode count
attr source packetDropReasonIsInterfaceDown(packetDropped)
attr title "packet drop: interface down, count"
scalar MultiCell.upf.ppp[2].ppp packetDropInterfaceDown:sum(packetBytes) 0
attr interpolationmode none
attr recordingmode sum(packetBytes)
attr source packetDropReasonIsInterfaceDown(packetDropped)
attr title "packet drop: interface down, sum(packetBytes)"
par MultiCell.upf.ppp[2] typename "\"inet.linklayer.ppp.PppInterface\""
par MultiCell.upf.ppp[2] displayStringTextFormat "\"%a (%i)\\n%m\""
par MultiCell.upf.ppp[2] recordPcap false
par MultiCell.upf.ppp[2] numPcapRecorders 0
par MultiCell.upf.ppp[2] interfaceTableModule "\"MultiCell.upf.interfaceTable\""
scalar MultiCell.upf.ppp[2] packetDropInterfaceDown:count 0
attr interpolationmode none
attr recordingmode count
attr source packetDropReasonIsInterfaceDown(packetDropped)
attr title "packet drops: interface down, count"
scalar MultiCell.upf.ppp[2] packetDropInterfaceDown:sum(packetBytes) 0
attr interpolationmode none
attr recordingmode sum(packetBytes)
attr source packetDropReasonIsInterfaceDown(packetDropped)
attr title "packet drops: interface down, sum(packetBytes)"
scalar MultiCell.upf.ppp[2] packetDropNoCarrier:count 0
attr interpolationmode none
attr recordingmode count
attr source packetDropReasonIsNoCarrier(packetDropped)
attr title "packet drops: no carrier, count"
scalar MultiCell.upf.ppp[2] packetDropNoCarrier:sum(packetBytes) 0
attr interpolationmode none
attr recordingmode sum(packetBytes)
attr source packetDropReasonIsNoCarrier(packetDropped)
attr title "packet drops: no carrier, sum(packetBytes)"
par MultiCell.upf.ipv4.transportIn.channel typename "\"ned.IdealChannel\""
par MultiCell.upf.ipv4.up.out[0].channel typename "\"ned.IdealChannel\""
par MultiCell.upf.ipv4.lp.out[2].channel typename "\"ned.IdealChannel\""
par MultiCell.upf.ipv4.ifIn.channel typename "\"ned.IdealChannel\""
par MultiCell.upf.ipv4.configurator typename "\"inet.networklayer.configurator.ipv4.Ipv4NodeConfigurator\""
par MultiCell.upf.ipv4.configurator interfaceTableModule "\"MultiCell.upf.interfaceTable\""
par MultiCell.upf.ipv4.configurator routingTableModule "\"MultiCell.upf.ipv4.routingTable\""
par MultiCell.upf.ipv4.configurator networkConfiguratorModule "\"configurator\""
par MultiCell.upf.ipv4.configurator configureRoutingTable true
par MultiCell.upf.ipv4.routingTable typename "\"inet.networklayer.ipv4.Ipv4RoutingTable\""
par MultiCell.upf.ipv4.routingTable interfaceTableModule "\"MultiCell.upf.interfaceTable\""
par MultiCell.upf.ipv4.routingTable routerId "\"auto\""
par MultiCell.upf.ipv4.routingTable netmaskRoutes "\"*\""
par MultiCell.upf.ipv4.routingTable forwarding true
[...]
attr title "packet drop: forwarding disabled, count"
scalar MultiCell.mecHost.upf_mec.ipv4.ip packetDropForwardingDisabled:sum(packetBytes) 0
attr interpolationmode none
attr recordingmode sum(packetBytes)
attr source packetDropReasonIsForwardingDisabled(packetDropped)
attr title "packet drop: forwarding disabled, sum(packetBytes)"
scalar MultiCell.mecHost.upf_mec.ipv4.ip packetDropNoInterfaceFound:count 0
attr interpolationmode none
attr recordingmode count
attr source packetDropReasonIsNoInterfaceFound(packetDropped)
attr title "packet drop: no interface found, count"
scalar MultiCell.mecHost.upf_mec.ipv4.ip packetDropNoInterfaceFound:sum(packetBytes) 0
attr interpolationmode none
attr recordingmode sum(packetBytes)
attr source packetDropReasonIsNoInterfaceFound(packetDropped)
attr title "packet drop: no interface found, sum(packetBytes)"
scalar MultiCell.mecHost.upf_mec.ipv4.ip packetDropNoRouteFound:count 0
attr interpolationmode none
attr recordingmode count
attr source packetDropReasonIsNoRouteFound(packetDropped)
attr title "packet drop: no route found, count"
scalar MultiCell.mecHost.upf_mec.ipv4.ip packetDropNoRouteFound:sum(packetBytes) 0
attr interpolationmode none
attr recordingmode sum(packetBytes)
attr source packetDropReasonIsNoRouteFound(packetDropped)
attr title "packet drop: no route found, sum(packetBytes)"
scalar MultiCell.mecHost.upf_mec.ipv4.ip packetDropUndefined:count 0
attr interpolationmode none
attr recordingmode count
attr source packetDropReasonIsUndefined(packetDropped)
attr title "packet drop: undefined, count"
scalar MultiCell.mecHost.upf_mec.ipv4.ip packetDropUndefined:sum(packetBytes) 0
attr interpolationmode none
attr recordingmode sum(packetBytes)
attr source packetDropReasonIsUndefined(packetDropped)
attr title "packet drop: undefined, sum(packetBytes)"
par MultiCell.mecHost.upf_mec.ipv4.arp typename "\"inet.networklayer.arp.ipv4.Arp\""
par MultiCell.mecHost.upf_mec.ipv4.arp interfaceTableModule "\"MultiCell.mecHost.upf_mec.interfaceTable\""
par MultiCell.mecHost.upf_mec.ipv4.arp routingTableModule "\"MultiCell.mecHost.upf_mec.ipv4.routingTable\""
par MultiCell.mecHost.upf_mec.ipv4.arp retryTimeout 1s
attr unit s
par MultiCell.mecHost.upf_mec.ipv4.arp retryCount 3
par MultiCell.mecHost.upf_mec.ipv4.arp cacheTimeout 120s
attr unit s
par MultiCell.mecHost.upf_mec.ipv4.arp proxyArpInterfaces "\"*\""
scalar MultiCell.mecHost.upf_mec.ipv4.arp arpResolutionFailed:count 0
attr recordingmode count
attr title "ARP failed resolutions, count"
scalar MultiCell.mecHost.upf_mec.ipv4.arp arpResolutionCompleted:count 0
attr recordingmode count
attr title "ARP completed resolutions, count"
scalar MultiCell.mecHost.upf_mec.ipv4.arp arpResolutionInitiated:count 0
attr recordingmode count
attr title "ARP initiated resolutions, count"
scalar MultiCell.mecHost.upf_mec.ipv4.arp arpReplySent:count 0
attr recordingmode count
attr source arpReplySent
attr title "ARP replies sent, count"
scalar MultiCell.mecHost.upf_mec.ipv4.arp arpReplySent:sum(packetBytes) 0
attr recordingmode sum(packetBytes)
attr source arpReplySent
attr title "ARP replies sent, sum(packetBytes)"
scalar MultiCell.mecHost.upf_mec.ipv4.arp arpRequestSent:count 0
attr recordingmode count
attr source arpRequestSent
attr title "ARP request sent, count"
scalar MultiCell.mecHost.upf_mec.ipv4.arp arpRequestSent:sum(packetBytes) 0
attr recordingmode sum(packetBytes)
attr source arpRequestSent
attr title "ARP request sent, sum(packetBytes)"
par MultiCell.mecHost.upf_mec.ipv4.lp typename "\"inet.common.MessageDispatcher\""
par MultiCell.mecHost.upf_mec.ipv4.lp displayStringTextFormat "\"processed %p pk (%l)\""
par MultiCell.mecHost.upf_mec.ipv4.lp forwardServiceRegistration true
par MultiCell.mecHost.upf_mec.ipv4.lp forwardProtocolRegistration true
par MultiCell.mecHost.upf_mec.ipv4 typename "\"inet.networklayer.ipv4.Ipv4NetworkLayer\""
par MultiCell.mecHost.upf_mec.ipv4 forwarding true
par MultiCell.mecHost.upf_mec.ipv4 multicastForwarding false
par MultiCell.mecHost.upf_mec.ipv4 interfaceTableModule "\"MultiCell.mecHost.upf_mec.interfaceTable\""
par MultiCell.mecHost.upf_mec.ipv4 displayStringTextFormat "\"%i\""
par MultiCell.mecHost.upf_mec.nl typename "\"inet.common.MessageDispatcher\""
par MultiCell.mecHost.upf_mec.nl displayStringTextFormat "\"processed %p pk (%l)\""
par MultiCell.mecHost.upf_mec.nl forwardServiceRegistration true
par MultiCell.mecHost.upf_mec.nl forwardProtocolRegistration true
par MultiCell.mecHost.upf_mec.pppIf.phys$i.channel typename "\"ned.IdealChannel\""
par MultiCell.mecHost.upf_mec.pppIf.ppp.phys$o.channel typename "\"ned.IdealChannel\""
par MultiCell.mecHost.upf_mec.pppIf.ppp.upperLayerOut.channel typename "\"ned.IdealChannel\""
par MultiCell.mecHost.upf_mec.pppIf.upperLayerIn.channel typename "\"ned.IdealChannel\""
par MultiCell.mecHost.upf_mec.pppIf.queue typename "\"inet.queueing.queue.DropTailQueue\""
par MultiCell.mecHost.upf_mec.pppIf.queue displayStringTextFormat "\"contains %p pk (%l) pushed %u\\npulled %o removed %r dropped %d\""
par MultiCell.mecHost.upf_mec.pppIf.queue packetCapacity 10000
par MultiCell.mecHost.upf_mec.pppIf.queue dataCapacity -1b
attr unit b
par MultiCell.mecHost.upf_mec.pppIf.queue dropperClass "\"inet::queueing::PacketAtCollectionEndDropper\""
par MultiCell.mecHost.upf_mec.pppIf.queue comparatorClass "\"\""
par MultiCell.mecHost.upf_mec.pppIf.queue bufferModule "\"\""
scalar MultiCell.mecHost.upf_mec.pppIf.queue queueLength:last nan
attr autoWarmupFilter false
attr interpolationmode sample-hold
attr recordingmode last
attr source "warmup(atomic(constant0(packetPushEnded) + count(packetPushStarted) - count(packetPulled) - count(packetRemoved) - count(packetDropped)))"
attr title "queue length, last"
attr unit pk
scalar MultiCell.mecHost.upf_mec.pppIf.queue queueLength:max -nan
attr autoWarmupFilter false
attr interpolationmode sample-hold
attr recordingmode max
attr source "warmup(atomic(constant0(packetPushEnded) + count(packetPushStarted) - count(packetPulled) - count(packetRemoved) - count(packetDropped)))"
attr title "queue length, max"
attr unit pk
scalar MultiCell.mecHost.upf_mec.pppIf.queue queueLength:timeavg -nan
attr autoWarmupFilter false
attr interpolationmode sample-hold
attr recordingmode timeavg
attr source "warmup(atomic(constant0(packetPushEnded) + count(packetPushStarted) - count(packetPulled) - count(packetRemoved) - count(packetDropped)))"
attr title "queue length, timeavg"
attr unit pk
scalar MultiCell.mecHost.upf_mec.pppIf.queue queueBitLength:last nan
attr autoWarmupFilter false
attr interpolationmode sample-hold
attr recordingmode last
attr source "warmup(atomic(constant0(packetPushEnded) + sum(packetLength(packetPushStarted)) - sum(packetLength(packetPulled)) - sum(packetLength(packetRemoved)) - sum(packetLength(packetDropped))))"
attr title "queue bit length, last"
attr unit b
scalar MultiCell.mecHost.upf_mec.pppIf.queue queueBitLength:max -nan
attr autoWarmupFilter false
attr interpolationmode sample-hold
attr recordingmode max
attr source "warmup(atomic(constant0(packetPushEnded) + sum(packetLength(packetPushStarted)) - sum(packetLength(packetPulled)) - sum(packetLength(packetRemoved)) - sum(packetLength(packetDropped))))"
attr title "queue bit length, max"
attr unit b
scalar MultiCell.mecHost.upf_mec.pppIf.queue queueBitLength:timeavg -nan
attr autoWarmupFilter false
attr interpolationmode sample-hold
attr recordingmode timeavg
attr source "warmup(atomic(constant0(packetPushEnded) + sum(packetLength(packetPushStarted)) - sum(packetLength(packetPulled)) - sum(packetLength(packetRemoved)) - sum(packetLength(packetDropped))))"
attr title "queue bit length, timeavg"
attr unit b
statistic MultiCell.mecHost.upf_mec.pppIf.queue queueingTime:histogram
field count 0
field mean -nan
field stddev -nan
field min -nan
field max -nan
field sum 0
field sqrsum 0
attr interpolationmode none
attr recordingmode histogram
attr source queueingTime(packetPulled)
attr title "queueing times"
attr unit s
bin	-inf	0
bin	0	0
bin	1	0
scalar MultiCell.mecHost.upf_mec.pppIf.queue outgoingPackets:count 0
attr recordingmode count
attr source packetPulled
attr title "outgoing packets, count"
attr unit pk
scalar MultiCell.mecHost.upf_mec.pppIf.queue outgoingPacketLengths:sum 0
attr interpolationmode none
attr recordingmode sum
attr source packetLength(packetPulled)
attr title "outgoing packet lengths, sum"
attr unit b
statistic MultiCell.mecHost.upf_mec.pppIf.queue outgoingPacketLengths:histogram
field count 0
field mean -nan
field stddev -nan
field min -nan
field max -nan
field sum 0
field sqrsum 0
attr interpolationmode none
attr recordingmode histogram
attr source packetLength(packetPulled)
attr title "outgoing packet lengths"
attr unit b
bin	-inf	0
bin	0	0
bin	1	0
statistic MultiCell.mecHost.upf_mec.pppIf.queue flowQueueingTime:histogram
field count 0
field mean -nan
field stddev -nan
field min -nan
field max -nan
field sum 0
field sqrsum 0
attr interpolationmode none
attr recordingmode histogram
attr source queueingTime(demuxFlow(packetPulled))
attr title "flow queueing times"
attr unit s
bin	-inf	0
bin	0	0
bin	1	0
scalar MultiCell.mecHost.upf_mec.pppIf.queue incomingPackets:count 0
attr recordingmode count
attr source packetPushStarted
attr title "incoming packets, count"
attr unit pk
scalar MultiCell.mecHost.upf_mec.pppIf.queue incomingPacketLengths:sum 0
attr interpolationmode none
attr recordingmode sum
attr source packetLength(packetPushStarted)
attr title "incoming packet lengths, sum"
attr unit b
statistic MultiCell.mecHost.upf_mec.pppIf.queue incomingPacketLengths:histogram
field count 0
field mean -nan
field stddev -nan
field min -nan
field max -nan
field sum 0
field sqrsum 0
attr interpolationmode none
attr recordingmode histogram
attr source packetLength(packetPushStarted)
attr title "incoming packet lengths"
attr unit b
bin	-inf	0
bin	0	0
bin	1	0
scalar MultiCell.mecHost.upf_mec.pppIf.queue droppedPacketsQueueOverflow:count 0
attr interpolationmode none
attr recordingmode count
attr source packetDropReasonIsQueueOverflow(packetDropped)
attr title "dropped packets: queue overflow, count"
attr unit pk
scalar MultiCell.mecHost.upf_mec.pppIf.queue droppedPacketLengthsQueueOverflow:sum 0
attr interpolationmode none
attr recordingmode sum
attr source packetLength(packetDropReasonIsQueueOverflow(packetDropped))
attr title "dropped packet lengths: queue overflow, sum"
attr unit b
par MultiCell.mecHost.upf_mec.pppIf.ppp typename "\"inet.linklayer.ppp.Ppp\""
par MultiCell.mecHost.upf_mec.pppIf.ppp interfaceTableModule "\"MultiCell.mecHost.upf_mec.interfaceTable\""
par MultiCell.mecHost.upf_mec.pppIf.ppp displayStringTextFormat "\"rate: %b\\nsent: %s, rcvd: %r\\nqueue: %q, drop: %d\""
par MultiCell.mecHost.upf_mec.pppIf.ppp sendRawBytes false
par MultiCell.mecHost.upf_mec.pppIf.ppp mtu 4470B
attr unit B
par MultiCell.mecHost.upf_mec.pppIf.ppp stopOperationExtraTime -1s
attr unit s
par MultiCell.mecHost.upf_mec.pppIf.ppp stopOperationTimeout 2s
attr unit s
scalar MultiCell.mecHost.upf_mec.pppIf.ppp transmissionState:timeavg 0
attr interpolationmode sample-hold
attr recordingmode timeavg
attr source transmissionStateChanged
attr title "tx state, timeavg"
scalar MultiCell.mecHost.upf_mec.pppIf.ppp rxPkOk:count 0
attr interpolationmode none
attr recordingmode count
attr source rxPkOk
attr title "packets received OK, count"
scalar MultiCell.mecHost.upf_mec.pppIf.ppp rxPkOk:sum(packetBytes) 0
attr interpolationmode none
attr recordingmode sum(packetBytes)
attr source rxPkOk
attr title "packets received OK, sum(packetBytes)"
scalar MultiCell.mecHost.upf_mec.pppIf.ppp txPk:count 0
attr interpolationmode none
attr recordingmode count
attr source packetSentToLower
attr title "packets transmitted, count"
scalar MultiCell.mecHost.upf_mec.pppIf.ppp txPk:sum(packetBytes) 0
attr interpolationmode none
attr recordingmode sum(packetBytes)
attr source packetSentToLower
attr title "packets transmitted, sum(packetBytes)"
scalar MultiCell.mecHost.upf_mec.pppIf.ppp rcvdPkFromHl:count 0
attr interpolationmode none
attr recordingmode count
attr source packetReceivedFromUpper
attr title "packets received from higher layer, count"
scalar MultiCell.mecHost.upf_mec.pppIf.ppp rcvdPkFromHl:sum(packetBytes) 0
attr interpolationmode none
attr recordingmode sum(packetBytes)
attr source packetReceivedFromUpper
attr title "packets received from higher layer, sum(packetBytes)"
scalar MultiCell.mecHost.upf_mec.pppIf.ppp passedUpPk:count 0
attr interpolationmode none
attr recordingmode count
attr source packetSentToUpper
attr title "packets passed to higher layer, count"
scalar MultiCell.mecHost.upf_mec.pppIf.ppp passedUpPk:sum(packetBytes) 0
attr interpolationmode none
attr recordingmode sum(packetBytes)
attr source packetSentToUpper
attr title "packets passed to higher layer, sum(packetBytes)"
scalar MultiCell.mecHost.upf_mec.pppIf.ppp packetDropIncorrectlyReceived:count 0
attr interpolationmode none
attr recordingmode count
attr source packetDropReasonIsIncorrectlyReceived(packetDropped)
attr title "packet drop: incorrectly received, count"
scalar MultiCell.mecHost.upf_mec.pppIf.ppp packetDropIncorrectlyReceived:sum(packetBytes) 0
attr interpolationmode none
attr recordingmode sum(packetBytes)
attr source packetDropReasonIsIncorrectlyReceived(packetDropped)
attr title "packet drop: incorrectly received, sum(packetBytes)"
scalar MultiCell.mecHost.upf_mec.pppIf.ppp packetDropInterfaceDown:count 0
attr interpolationmode none
attr recordingmode count
attr source packetDropReasonIsInterfaceDown(packetDropped)
attr title "packet drop: interface down, count"
scalar MultiCell.mecHost.upf_mec.pppIf.ppp packetDropInterfaceDown:sum(packetBytes) 0
attr interpolationmode none
attr recordingmode sum(packetBytes)
attr source packetDropReasonIsInterfaceDown(packetDropped)
attr title "packet drop: interface down, sum(packetBytes)"
par MultiCell.mecHost.upf_mec.pppIf typename "\"inet.linklayer.ppp.PppInterface\""
par MultiCell.mecHost.upf_mec.pppIf displayStringTextFormat "\"%a (%i)\\n%m\""
par MultiCell.mecHost.upf_mec.pppIf recordPcap false
par MultiCell.mecHost.upf_mec.pppIf numPcapRecorders 0
par MultiCell.mecHost.upf_mec.pppIf interfaceTableModule "\"MultiCell.mecHost.upf_mec.interfaceTable\""
scalar MultiCell.mecHost.upf_mec.pppIf packetDropInterfaceDown:count 0
attr interpolationmode none
attr recordingmode count
attr source packetDropReasonIsInterfaceDown(packetDropped)
attr title "packet drops: interface down, count"
scalar MultiCell.mecHost.upf_mec.pppIf packetDropInterfaceDown:sum(packetBytes) 0
attr interpolationmode none
attr recordingmode sum(packetBytes)
attr source packetDropReasonIsInterfaceDown(packetDropped)
attr title "packet drops: interface down, sum(packetBytes)"
scalar MultiCell.mecHost.upf_mec.pppIf packetDropNoCarrier:count 0
attr interpolationmode none
attr recordingmode count
attr source packetDropReasonIsNoCarrier(packetDropped)
attr title "packet drops: no carrier, count"
scalar MultiCell.mecHost.upf_mec.pppIf packetDropNoCarrier:sum(packetBytes) 0
attr interpolationmode none
attr recordingmode sum(packetBytes)
attr source packetDropReasonIsNoCarrier(packetDropped)
attr title "packet drops: no carrier, sum(packetBytes)"
par MultiCell.mecHost.upf_mec.udp typename "\"inet.transportlayer.udp.Udp\""
par MultiCell.mecHost.upf_mec.udp interfaceTableModule "\"MultiCell.mecHost.upf_mec.interfaceTable\""
par MultiCell.mecHost.upf_mec.udp icmpModule "\"^.ipv4.icmp\""
par MultiCell.mecHost.upf_mec.udp icmpv6Module "\"^.ipv6.icmpv6\""
par MultiCell.mecHost.upf_mec.udp crcMode "\"declared\""
attr enum disabled,declared,computed
par MultiCell.mecHost.upf_mec.udp defaultMulticastLoop true
scalar MultiCell.mecHost.upf_mec.udp packetReceived:count 0
attr interpolationmode none
attr recordingmode count
attr source packetReceived
attr title "packets received, count"
scalar MultiCell.mecHost.upf_mec.udp packetReceived:sum(packetBytes) 0
attr interpolationmode none
attr recordingmode sum(packetBytes)
attr source packetReceived
attr title "packets received, sum(packetBytes)"
scalar MultiCell.mecHost.upf_mec.udp packetSent:count 0
attr interpolationmode none
attr recordingmode count
attr source packetSent
attr title "packets sent, count"
scalar MultiCell.mecHost.upf_mec.udp packetSent:sum(packetBytes) 0
attr interpolationmode none
attr recordingmode sum(packetBytes)
attr source packetSent
attr title "packets sent, sum(packetBytes)"
scalar MultiCell.mecHost.upf_mec.udp passedUpPk:count 0
attr interpolationmode none
attr recordingmode count
attr source packetSentToUpper
attr title "packets passed up, count"
scalar MultiCell.mecHost.upf_mec.udp droppedPkWrongPort:count 0
attr interpolationmode none
attr recordingmode count
attr source packetDropReasonIsNoPortFound(packetDropped)
attr title "packets dropped (wrong port), count"
scalar MultiCell.mecHost.upf_mec.udp droppedPkBadChecksum:count 0
attr interpolationmode none
attr recordingmode count
attr source packetDropReasonIsIncorrectlyReceived(packetDropped)
attr title "packets dropped (checksum error), count"
par MultiCell.mecHost.upf_mec.trafficFlowFilter typename "\"simu5g.corenetwork.trafficFlowFilter.TrafficFlowFilter\""
par MultiCell.mecHost.upf_mec.trafficFlowFilter ownerType "\"UPF_MEC\""
par MultiCell.mecHost.upf_mec.trafficFlowFilter fastForwarding true
par MultiCell.mecHost.upf_mec.gtp_user typename "\"simu5g.corenetwork.gtp.GtpUser\""
par MultiCell.mecHost.upf_mec.gtp_user interfaceTableModule "\"MultiCell.mecHost.upf_mec.interfaceTable\""
par MultiCell.mecHost.upf_mec.gtp_user ipOutInterface "\"\""
par MultiCell.mecHost.upf_mec.gtp_user localPort 31
par MultiCell.mecHost.upf_mec.gtp_user tunnelPeerPort 31
par MultiCell.mecHost.upf_mec.gtp_user filter true
par MultiCell.mecHost.upf_mec.tn typename "\"inet.common.MessageDispatcher\""
par MultiCell.mecHost.upf_mec.tn displayStringTextFormat "\"processed %p pk (%l)\""
par MultiCell.mecHost.upf_mec.tn forwardServiceRegistration true
par MultiCell.mecHost.upf_mec.tn forwardProtocolRegistration true
par MultiCell.mecHost.upf_mec.at typename "\"inet.common.MessageDispatcher\""
par MultiCell.mecHost.upf_mec.at displayStringTextFormat "\"processed %p pk (%l)\""
par MultiCell.mecHost.upf_mec.at forwardServiceRegistration true
par MultiCell.mecHost.upf_mec.at forwardProtocolRegistration true
par MultiCell.mecHost.upf_mec typename "\"simu5g.nodes.Upf\""
par MultiCell.mecHost.upf_mec hasStatus false
par MultiCell.mecHost.upf_mec osgModel "\"\""
par MultiCell.mecHost.upf_mec osgModelColor "\"\""
par MultiCell.mecHost.upf_mec canvasImage "\"\""
par MultiCell.mecHost.upf_mec canvasImageColor "\"\""
par MultiCell.mecHost.upf_mec recordPcap false
par MultiCell.mecHost.upf_mec numPcapRecorders 0
par MultiCell.mecHost.upf_mec numLoInterfaces 1
par MultiCell.mecHost.upf_mec numWlanInterfaces 0
par MultiCell.mecHost.upf_mec numEthInterfaces 0
par MultiCell.mecHost.upf_mec numPppInterfaces 0
par MultiCell.mecHost.upf_mec numTunInterfaces 0
par MultiCell.mecHost.upf_mec numVirtInterfaces 0
par MultiCell.mecHost.upf_mec fcsMode "\"declared\""
attr enum declared,computed
par MultiCell.mecHost.upf_mec hasIpv4 true
par MultiCell.mecHost.upf_mec hasIpv6 false
par MultiCell.mecHost.upf_mec hasGn false
par MultiCell.mecHost.upf_mec forwarding true
par MultiCell.mecHost.upf_mec multicastForwarding false
par MultiCell.mecHost.upf_mec nodeType "\"UPF_MEC\""
par MultiCell.mecHost typename "\"simu5g.nodes.mec.MECHost\""
par MultiCell.mecHost nodeType "\"MECHost\""
par MultiCell.mecHost gateway "\"upf\""
par MultiCell.mecHost maxMECApps 100
par MultiCell.mecHost maxRam 3.2e+10B
attr unit B
par MultiCell.mecHost maxDisk 1e+14B
attr unit B
par MultiCell.mecHost maxCpuSpeed 300000
par MultiCell.mecHost numBGMecApp 0
par MultiCell.mecHost numIndependentMecApp 0
par MultiCell.mecHost bsList "\"\""
par MultiCell typename "\"simu5g.simulations.NR.mec.RNIDelay.MultiCell\""
par MultiCell numExtCells 0
par MultiCell numCars 0

