version 3
run SingleMec-0-20230627-20:10:29-20286
attr configname SingleMec
attr datetime 20230627-20:10:29
attr datetimef 20230627-201029
attr experiment SingleMec
attr inifile omnetpp.ini
attr iterationvars ""
attr iterationvarsd ""
attr iterationvarsf ""
attr measurement ""
attr network simu5g.simulations.NR.mec.singleMecHost.singleMecHost
attr processid 20286
attr repetition 0
attr replication #0
attr resultdir results
attr runnumber 0
attr seedset 0
config image-path ../../../../images:../../../../../inet/images:../../../../../veins/images:../../../../../veins_inet/images
config network simu5g.simulations.NR.mec.singleMecHost.singleMecHost
config *.carrierAggregation.numComponentCarriers 1
config *.carrierAggregation.componentCarrier[0].numBands 25
config *.*.cellularNic.LteChannelModelType "\"NRChannelModel\""
config *.gNodeB1.cellularNic.numCarriers 1
config *.gNodeB1.cellularNic.channelModel[0].componentCarrierIndex 0
config *.ue[*].cellularNic.numCarriers 1
config *.ue[*].cellularNic.nrChannelModel[0].componentCarrierIndex 0
config **.mobility.constraintAreaMinZ 0m
config **.mobility.constraintAreaMaxZ 0m
config *.ue[*].mobility.initFromDisplayString false
config *.ue[*].mobility.typename LinearMobility
config *.ue[*].mobility.updateInterval 0.05s
config *.gNodeB1.mobility.initFromDisplayString true
config **.numUes 3
config **.ue[0].mobility.initialX 180m
config **.ue[0].mobility.initialY 50m
config **.ue[0].mobility.initialMovementHeading 90deg
config **.ue[0].mobility.speed 10mps
config **.ue[1].mobility.initialX 180m
config **.ue[1].mobility.initialY 100m
config **.ue[1].mobility.initialMovementHeading 90deg
config **.ue[1].mobility.speed 10mps
config **.ue[2].mobility.initialX 180m
config **.ue[2].mobility.initialY 150m
config **.ue[2].mobility.initialMovementHeading 90deg
config **.ue[2].mobility.speed 10mps
config **.ue[*].masterId 0
config **.ue[*].macCellId 0
config **.ue[*].nrMasterId 1
config **.ue[*].nrMacCellId 1
config **.gNodeB1.macCellId 1
config **.gNodeB1.macNodeId 1
config **.tcp.typename Tcp
config **.tcp.advertisedWindow 65535
config **.tcp.tcpAlgorithmClass "\"TcpReno\""
config **.tcp.sackSupport true
config *.ue[*].numApps 2
config *.ue[*].app[0].typename DeviceApp
config *.ue[*].app[0].localPort 4500
config *.ue[*].app[0].UALCMPAddress "\"ualcmp\""
config *.ue[*].app[0].UALCMPPort 1000
config *.ue[*].app[0].appPackageSource "\"ApplicationDescriptors/WarningAlertApp.json\""
config *.ue[*].app[1].typename UEWarningAlertApp
config *.ue[*].app[1].deviceAppAddress "\"ue[\"+string(ancestorIndex(1))+\"]\""
config *.ue[*].app[1].deviceAppPort 4500
config *.ue[*].app[1].startTime 1s
config *.ue[*].app[1].stopTime 30s
config *.mecHost.maxMECApps 100
config *.mecHost.maxRam 32GB
config *.mecHost.maxDisk 100TB
config *.mecHost.maxCpuSpeed 400000
config *.gNodeB*.mecHost "\"mecHost\""
config *.mecHost.bsList "\"gNodeB1\""
config *.mecHost.mecPlatformManager.mecOrchestrator "\"mecOrchestrator\""
config *.mecHost.mecPlatform.numMecServices 1
config *.mecHost.mecPlatform.mecService[0].typename LocationService
config *.mecHost.mecPlatform.mecService[0].localAddress "\"mecHost.virtualisationInfrastructure\""
config *.mecHost.mecPlatform.mecService[0].localPort 10020
config *.mecHost.mecPlatform.mecService[0].rng-0 0
config *.mecHost.mecPlatform.mecService[0].rng-1 1
config *.mecHost.mecPlatform.mecService[0].requestServiceTime 100us
config *.mecHost.mecPlatform.mecService[0].subscriptionServiceTime 11us
config *.mecHost.mecPlatform.serviceRegistry.localAddress "\"mecHost.virtualisationInfrastructure\""
config *.mecHost.mecPlatform.serviceRegistry.localPort 10021
config *.mecHost.mecPlatform.serviceRegistry.rng-0 0
config *.mecHost.mecPlatform.serviceRegistry.rng-1 1
config **.mecOrchestrator.mecHostList "\"mecHost\""
config image-path ../../../images
config cmdenv-express-mode true
config cmdenv-autoflush true
config num-rngs 3
config repeat 1
config seed-set 0
config output-scalar-file results/SingleMec/0.sca
config output-vector-file results/SingleMec/0.vec
config **.routingRecorder.enabled false
config **.scalar-recording false
config **.vector-recording false
config debug-on-errors false
config print-undisposed true
config sim-time-limit 38s
config warmup-period 10s
config *.playgroundSizeX 1100m
config *.playgroundSizeY 800m
config *.playgroundSizeZ 50m
config *.configurator.config "xmldoc(\"./demo.xml\")"
config *.gNodeB*.cellInfo.broadcastMessageInterval 0.5s
config **.fbPeriod 40
config **.amcType "\"NRAmc\""
config **.pilotMode "\"ROBUST_CQI\""
config **.targetBler 0.01
config **.blerShift 5

par "singleMecHost.mecHost.MECWarningAlertApp\n548" typename "\"simu5g.apps.mec.WarningAlert.MECWarningAlertApp\""
par "singleMecHost.mecHost.MECWarningAlertApp\n548" packetSize 10
par "singleMecHost.mecHost.MECWarningAlertApp\n548" interfaceTableModule "\"\""
par "singleMecHost.mecHost.MECWarningAlertApp\n548" mecAppIndex 0
par "singleMecHost.mecHost.MECWarningAlertApp\n548" mecAppId 216
par "singleMecHost.mecHost.MECWarningAlertApp\n548" localUePort 4001
par "singleMecHost.mecHost.MECWarningAlertApp\n548" mp1Address "\"192.168.7.1\""
par "singleMecHost.mecHost.MECWarningAlertApp\n548" mp1Port 10021
par "singleMecHost.mecHost.MECWarningAlertApp\n548" requiredRam 1e+07B
attr unit B
par "singleMecHost.mecHost.MECWarningAlertApp\n548" requiredDisk 1e+07B
attr unit B
par "singleMecHost.mecHost.MECWarningAlertApp\n548" requiredCpu 1500
par "singleMecHost.mecHost.MECWarningAlertApp\n548" timeToLive -1
par "singleMecHost.mecHost.MECWarningAlertApp\n548" dscp -1
par "singleMecHost.mecHost.MECWarningAlertApp\n548" tos -1
par "singleMecHost.mecHost.MECWarningAlertApp\n548" logger false
par "singleMecHost.mecHost.MECWarningAlertApp\n552" typename "\"simu5g.apps.mec.WarningAlert.MECWarningAlertApp\""
par "singleMecHost.mecHost.MECWarningAlertApp\n552" packetSize 10
par "singleMecHost.mecHost.MECWarningAlertApp\n552" interfaceTableModule "\"\""
par "singleMecHost.mecHost.MECWarningAlertApp\n552" mecAppIndex 1
par "singleMecHost.mecHost.MECWarningAlertApp\n552" mecAppId 268
par "singleMecHost.mecHost.MECWarningAlertApp\n552" localUePort 4002
par "singleMecHost.mecHost.MECWarningAlertApp\n552" mp1Address "\"192.168.7.1\""
par "singleMecHost.mecHost.MECWarningAlertApp\n552" mp1Port 10021
par "singleMecHost.mecHost.MECWarningAlertApp\n552" requiredRam 1e+07B
attr unit B
par "singleMecHost.mecHost.MECWarningAlertApp\n552" requiredDisk 1e+07B
attr unit B
par "singleMecHost.mecHost.MECWarningAlertApp\n552" requiredCpu 1500
par "singleMecHost.mecHost.MECWarningAlertApp\n552" timeToLive -1
par "singleMecHost.mecHost.MECWarningAlertApp\n552" dscp -1
par "singleMecHost.mecHost.MECWarningAlertApp\n552" tos -1
par "singleMecHost.mecHost.MECWarningAlertApp\n552" logger false
par "singleMecHost.mecHost.MECWarningAlertApp\n556" typename "\"simu5g.apps.mec.WarningAlert.MECWarningAlertApp\""
par "singleMecHost.mecHost.MECWarningAlertApp\n556" packetSize 10
par "singleMecHost.mecHost.MECWarningAlertApp\n556" interfaceTableModule "\"\""
par "singleMecHost.mecHost.MECWarningAlertApp\n556" mecAppIndex 2
par "singleMecHost.mecHost.MECWarningAlertApp\n556" mecAppId 320
par "singleMecHost.mecHost.MECWarningAlertApp\n556" localUePort 4003
par "singleMecHost.mecHost.MECWarningAlertApp\n556" mp1Address "\"192.168.7.1\""
par "singleMecHost.mecHost.MECWarningAlertApp\n556" mp1Port 10021
par "singleMecHost.mecHost.MECWarningAlertApp\n556" requiredRam 1e+07B
attr unit B
par "singleMecHost.mecHost.MECWarningAlertApp\n556" requiredDisk 1e+07B
attr unit B
par "singleMecHost.mecHost.MECWarningAlertApp\n556" requiredCpu 1500
par "singleMecHost.mecHost.MECWarningAlertApp\n556" timeToLive -1
par "singleMecHost.mecHost.MECWarningAlertApp\n556" dscp -1
par "singleMecHost.mecHost.MECWarningAlertApp\n556" tos -1
par "singleMecHost.mecHost.MECWarningAlertApp\n556" logger false
par singleMecHost.upf.pppg$o[0].channel typename "\"inet.node.ethernet.Eth10G\""
par singleMecHost.upf.pppg$o[0].channel disabled false
attr mutable ""
par singleMecHost.upf.pppg$o[0].channel delay 5e-08s
attr mutable ""
attr unit s
par singleMecHost.upf.pppg$o[0].channel datarate 1e+10bps
attr mutable ""
attr unit bps
par singleMecHost.upf.pppg$o[0].channel ber 0
attr mutable ""
par singleMecHost.upf.pppg$o[0].channel per 0
attr mutable ""
par singleMecHost.upf.pppg$o[0].channel length 10m
attr unit m
par singleMecHost.iUpf.pppg$o[0].channel typename "\"inet.node.ethernet.Eth10G\""
par singleMecHost.iUpf.pppg$o[0].channel disabled false
attr mutable ""
par singleMecHost.iUpf.pppg$o[0].channel delay 5e-08s
attr mutable ""
attr unit s
par singleMecHost.iUpf.pppg$o[0].channel datarate 1e+10bps
attr mutable ""
attr unit bps
par singleMecHost.iUpf.pppg$o[0].channel ber 0
attr mutable ""
par singleMecHost.iUpf.pppg$o[0].channel per 0
attr mutable ""
par singleMecHost.iUpf.pppg$o[0].channel length 10m
attr unit m
par singleMecHost.iUpf.pppg$o[1].channel typename "\"inet.node.ethernet.Eth10G\""
par singleMecHost.iUpf.pppg$o[1].channel disabled false
attr mutable ""
par singleMecHost.iUpf.pppg$o[1].channel delay 5e-08s
attr mutable ""
attr unit s
par singleMecHost.iUpf.pppg$o[1].channel datarate 1e+10bps
attr mutable ""
attr unit bps
par singleMecHost.iUpf.pppg$o[1].channel ber 0
attr mutable ""
par singleMecHost.iUpf.pppg$o[1].channel per 0
attr mutable ""
par singleMecHost.iUpf.pppg$o[1].channel length 10m
attr unit m
par singleMecHost.gNodeB1.ppp$o.channel typename "\"inet.node.ethernet.Eth10G\""
par singleMecHost.gNodeB1.ppp$o.channel disabled false
attr mutable ""
par singleMecHost.gNodeB1.ppp$o.channel delay 5e-08s
attr mutable ""
attr unit s
par singleMecHost.gNodeB1.ppp$o.channel datarate 1e+10bps
attr mutable ""
attr unit bps
par singleMecHost.gNodeB1.ppp$o.channel ber 0
attr mutable ""
par singleMecHost.gNodeB1.ppp$o.channel per 0
attr mutable ""
par singleMecHost.gNodeB1.ppp$o.channel length 10m
attr unit m
par singleMecHost.ualcmp.ppp$o[0].channel typename "\"inet.node.ethernet.Eth10G\""
par singleMecHost.ualcmp.ppp$o[0].channel disabled false
attr mutable ""
par singleMecHost.ualcmp.ppp$o[0].channel delay 5e-08s
attr mutable ""
attr unit s
par singleMecHost.ualcmp.ppp$o[0].channel datarate 1e+10bps
attr mutable ""
attr unit bps
par singleMecHost.ualcmp.ppp$o[0].channel ber 0
attr mutable ""
par singleMecHost.ualcmp.ppp$o[0].channel per 0
attr mutable ""
par singleMecHost.ualcmp.ppp$o[0].channel length 10m
attr unit m
par singleMecHost.upf.filterGate$o.channel typename "\"inet.node.ethernet.Eth10G\""
par singleMecHost.upf.filterGate$o.channel disabled false
attr mutable ""
par singleMecHost.upf.filterGate$o.channel delay 5e-08s
attr mutable ""
attr unit s
par singleMecHost.upf.filterGate$o.channel datarate 1e+10bps
attr mutable ""
attr unit bps
par singleMecHost.upf.filterGate$o.channel ber 0
attr mutable ""
par singleMecHost.upf.filterGate$o.channel per 0
attr mutable ""
par singleMecHost.upf.filterGate$o.channel length 10m
attr unit m
par singleMecHost.mecHost.ppp$o[0].channel typename "\"inet.node.ethernet.Eth10G\""
par singleMecHost.mecHost.ppp$o[0].channel disabled false
attr mutable ""
par singleMecHost.mecHost.ppp$o[0].channel delay 5e-08s
attr mutable ""
attr unit s
par singleMecHost.mecHost.ppp$o[0].channel datarate 1e+10bps
attr mutable ""
attr unit bps
par singleMecHost.mecHost.ppp$o[0].channel ber 0
attr mutable ""
par singleMecHost.mecHost.ppp$o[0].channel per 0
attr mutable ""
par singleMecHost.mecHost.ppp$o[0].channel length 10m
attr unit m
par singleMecHost.iUpf.pppg$o[2].channel typename "\"inet.node.ethernet.Eth10G\""
par singleMecHost.iUpf.pppg$o[2].channel disabled false
attr mutable ""
par singleMecHost.iUpf.pppg$o[2].channel delay 5e-08s
attr mutable ""
attr unit s
par singleMecHost.iUpf.pppg$o[2].channel datarate 1e+10bps
attr mutable ""
attr unit bps
par singleMecHost.iUpf.pppg$o[2].channel ber 0
attr mutable ""
par singleMecHost.iUpf.pppg$o[2].channel per 0
attr mutable ""
par singleMecHost.iUpf.pppg$o[2].channel length 10m
attr unit m
par singleMecHost.routingRecorder typename "\"inet.networklayer.ipv4.RoutingTableRecorder\""
par singleMecHost.routingRecorder enabled false
par singleMecHost.configurator typename "\"inet.networklayer.configurator.ipv4.Ipv4NetworkConfigurator\""
par singleMecHost.configurator minLinkWeight 0.001
par singleMecHost.configurator configureIsolatedNetworksSeparatly false
par singleMecHost.configurator config "<config>...</config> at /home/omnet/Documents/omnetpp/workspace11.0/simu5G/simulations/NR/mec/singleMecHost//./demo.xml:1"
par singleMecHost.configurator assignAddresses true
par singleMecHost.configurator assignUniqueAddresses true
par singleMecHost.configurator assignDisjunctSubnetAddresses true
par singleMecHost.configurator addStaticRoutes true
par singleMecHost.configurator addDefaultRoutes true
par singleMecHost.configurator addSubnetRoutes true
par singleMecHost.configurator addDirectRoutes true
par singleMecHost.configurator optimizeRoutes true
par singleMecHost.configurator dumpTopology false
par singleMecHost.configurator dumpLinks false
par singleMecHost.configurator dumpAddresses false
par singleMecHost.configurator dumpRoutes false
par singleMecHost.configurator dumpConfig "\"\""
par singleMecHost.channelControl typename "\"simu5g.world.radio.LteChannelControl\""
par singleMecHost.channelControl coreDebug false
par singleMecHost.channelControl pMax 20mW
attr unit mW
par singleMecHost.channelControl sat -110dBm
attr unit dBm
par singleMecHost.channelControl alpha 2
par singleMecHost.channelControl carrierFrequency 2.4e+09Hz
attr unit Hz
par singleMecHost.channelControl numChannels 1
par singleMecHost.channelControl propagationModel "\"FreeSpaceModel\""
attr enum FreeSpaceModel,TwoRayGroundModel,RiceModel,RayleighModel,NakagamiModel,LogNormalShadowingModel
par singleMecHost.binder typename "\"simu5g.common.binder.Binder\""
par singleMecHost.binder blerShift 5
par singleMecHost.binder maxDataRatePerRb 1.16Mbps
attr unit Mbps
par singleMecHost.binder printTrafficGeneratorConfig false
par singleMecHost.carrierAggregation.componentCarrier[0] typename "\"simu5g.common.carrierAggregation.ComponentCarrier\""
par singleMecHost.carrierAggregation.componentCarrier[0] carrierFrequency 2GHz
attr unit GHz
par singleMecHost.carrierAggregation.componentCarrier[0] numBands 25
par singleMecHost.carrierAggregation.componentCarrier[0] numerologyIndex 0
par singleMecHost.carrierAggregation.componentCarrier[0] useTdd false
par singleMecHost.carrierAggregation.componentCarrier[0] tddNumSymbolsDl 7
par singleMecHost.carrierAggregation.componentCarrier[0] tddNumSymbolsUl 7
par singleMecHost.carrierAggregation typename "\"simu5g.common.carrierAggregation.CarrierAggregation\""
par singleMecHost.carrierAggregation numComponentCarriers 1
par singleMecHost.upf.pppg$i[0].channel typename "\"ned.IdealChannel\""
par singleMecHost.upf.ppp[0].phys$o.channel typename "\"ned.IdealChannel\""
par singleMecHost.upf.interfaceTable typename "\"inet.networklayer.common.InterfaceTable\""
par singleMecHost.upf.interfaceTable displayAddresses false
par singleMecHost.upf.cb typename "\"inet.common.MessageDispatcher\""
par singleMecHost.upf.cb displayStringTextFormat "\"processed %p pk (%l)\""
par singleMecHost.upf.cb forwardServiceRegistration true
par singleMecHost.upf.cb forwardProtocolRegistration true
par singleMecHost.upf.bl typename "\"inet.common.MessageDispatcher\""
par singleMecHost.upf.bl displayStringTextFormat "\"processed %p pk (%l)\""
par singleMecHost.upf.bl forwardServiceRegistration true
par singleMecHost.upf.bl forwardProtocolRegistration true
par singleMecHost.upf.li typename "\"inet.common.MessageDispatcher\""
par singleMecHost.upf.li displayStringTextFormat "\"processed %p pk (%l)\""
par singleMecHost.upf.li forwardServiceRegistration true
par singleMecHost.upf.li forwardProtocolRegistration true
par singleMecHost.upf.lo[0].upperLayerIn.channel typename "\"ned.IdealChannel\""
par singleMecHost.upf.lo[0].lo.upperLayerOut.channel typename "\"ned.IdealChannel\""
par singleMecHost.upf.lo[0].lo typename "\"inet.linklayer.loopback.Loopback\""
par singleMecHost.upf.lo[0].lo interfaceTableModule "\"singleMecHost.upf.interfaceTable\""
par singleMecHost.upf.lo[0].lo mtu 4470B
attr unit B
par singleMecHost.upf.lo[0] typename "\"inet.linklayer.loopback.LoopbackInterface\""
par singleMecHost.upf.lo[0] displayStringTextFormat "\"%a (%i)\\n%m\""
par singleMecHost.upf.lo[0] recordPcap false
par singleMecHost.upf.lo[0] numPcapRecorders 0
par singleMecHost.upf.lo[0] interfaceTableModule "\"singleMecHost.upf.interfaceTable\""
par singleMecHost.upf.ppp[0].phys$i.channel typename "\"ned.IdealChannel\""
par singleMecHost.upf.ppp[0].ppp.phys$o.channel typename "\"ned.IdealChannel\""
par singleMecHost.upf.ppp[0].ppp.upperLayerOut.channel typename "\"ned.IdealChannel\""
par singleMecHost.upf.ppp[0].upperLayerIn.channel typename "\"ned.IdealChannel\""
par singleMecHost.upf.ppp[0].queue typename "\"inet.queueing.queue.DropTailQueue\""
par singleMecHost.upf.ppp[0].queue displayStringTextFormat "\"contains %p pk (%l) pushed %u\\npulled %o removed %r dropped %d\""
par singleMecHost.upf.ppp[0].queue packetCapacity 10000
par singleMecHost.upf.ppp[0].queue dataCapacity -1b
attr unit b
par singleMecHost.upf.ppp[0].queue dropperClass "\"inet::queueing::PacketAtCollectionEndDropper\""
par singleMecHost.upf.ppp[0].queue comparatorClass "\"\""
par singleMecHost.upf.ppp[0].queue bufferModule "\"\""
par singleMecHost.upf.ppp[0].ppp typename "\"inet.linklayer.ppp.Ppp\""
par singleMecHost.upf.ppp[0].ppp interfaceTableModule "\"singleMecHost.upf.interfaceTable\""
par singleMecHost.upf.ppp[0].ppp displayStringTextFormat "\"rate: %b\\nsent: %s, rcvd: %r\\nqueue: %q, drop: %d\""
par singleMecHost.upf.ppp[0].ppp sendRawBytes false
par singleMecHost.upf.ppp[0].ppp mtu 4470B
attr unit B
par singleMecHost.upf.ppp[0].ppp stopOperationExtraTime -1s
attr unit s
par singleMecHost.upf.ppp[0].ppp stopOperationTimeout 2s
attr unit s
par singleMecHost.upf.ppp[0] typename "\"inet.linklayer.ppp.PppInterface\""
par singleMecHost.upf.ppp[0] displayStringTextFormat "\"%a (%i)\\n%m\""
par singleMecHost.upf.ppp[0] recordPcap false
par singleMecHost.upf.ppp[0] numPcapRecorders 0
par singleMecHost.upf.ppp[0] interfaceTableModule "\"singleMecHost.upf.interfaceTable\""
par singleMecHost.upf.ipv4.transportIn.channel typename "\"ned.IdealChannel\""
par singleMecHost.upf.ipv4.up.out[0].channel typename "\"ned.IdealChannel\""
par singleMecHost.upf.ipv4.lp.out[2].channel typename "\"ned.IdealChannel\""
par singleMecHost.upf.ipv4.ifIn.channel typename "\"ned.IdealChannel\""
par singleMecHost.upf.ipv4.configurator typename "\"inet.networklayer.configurator.ipv4.Ipv4NodeConfigurator\""
par singleMecHost.upf.ipv4.configurator interfaceTableModule "\"singleMecHost.upf.interfaceTable\""
par singleMecHost.upf.ipv4.configurator routingTableModule "\"singleMecHost.upf.ipv4.routingTable\""
par singleMecHost.upf.ipv4.configurator networkConfiguratorModule "\"configurator\""
par singleMecHost.upf.ipv4.configurator configureRoutingTable true
par singleMecHost.upf.ipv4.routingTable typename "\"inet.networklayer.ipv4.Ipv4RoutingTable\""
par singleMecHost.upf.ipv4.routingTable interfaceTableModule "\"singleMecHost.upf.interfaceTable\""
par singleMecHost.upf.ipv4.routingTable routerId "\"auto\""
par singleMecHost.upf.ipv4.routingTable netmaskRoutes "\"*\""
par singleMecHost.upf.ipv4.routingTable forwarding true
par singleMecHost.upf.ipv4.routingTable multicastForwarding false
par singleMecHost.upf.ipv4.routingTable useAdminDist false
par singleMecHost.upf.ipv4.routingTable routingFile "\"\""
par singleMecHost.upf.ipv4.natTable typename "\"inet.networklayer.ipv4.Ipv4NatTable\""
par singleMecHost.upf.ipv4.natTable networkProtocolModule "\"^.ip\""
par singleMecHost.upf.ipv4.natTable config "<config/> at content:1"
par singleMecHost.upf.ipv4.up typename "\"inet.common.MessageDispatcher\""
par singleMecHost.upf.ipv4.up displayStringTextFormat "\"processed %p pk (%l)\""
par singleMecHost.upf.ipv4.up forwardServiceRegistration true
par singleMecHost.upf.ipv4.up forwardProtocolRegistration true
par singleMecHost.upf.ipv4.igmp typename "\"inet.networklayer.ipv4.Igmpv2\""
par singleMecHost.upf.ipv4.igmp interfaceTableModule "\"singleMecHost.upf.interfaceTable\""
par singleMecHost.upf.ipv4.igmp routingTableModule "\"singleMecHost.upf.ipv4.routingTable\""
par singleMecHost.upf.ipv4.igmp crcMode "\"declared\""
attr enum declared,computed
par singleMecHost.upf.ipv4.igmp enabled true
par singleMecHost.upf.ipv4.igmp robustnessVariable 2
par singleMecHost.upf.ipv4.igmp queryInterval 125s
attr unit s
par singleMecHost.upf.ipv4.igmp queryResponseInterval 10s
attr unit s
par singleMecHost.upf.ipv4.igmp groupMembershipInterval 260s
attr unit s
par singleMecHost.upf.ipv4.igmp otherQuerierPresentInterval 255s
attr unit s
par singleMecHost.upf.ipv4.igmp startupQueryInterval 31.25s
attr unit s
par singleMecHost.upf.ipv4.igmp startupQueryCount 2
par singleMecHost.upf.ipv4.igmp lastMemberQueryInterval 1s
attr unit s
par singleMecHost.upf.ipv4.igmp lastMemberQueryCount 2
par singleMecHost.upf.ipv4.igmp unsolicitedReportInterval 10s
attr unit s
par singleMecHost.upf.ipv4.icmp typename "\"inet.networklayer.ipv4.Icmp\""
par singleMecHost.upf.ipv4.icmp interfaceTableModule "\"singleMecHost.upf.interfaceTable\""
par singleMecHost.upf.ipv4.icmp routingTableModule "\"singleMecHost.upf.ipv4.routingTable\""
par singleMecHost.upf.ipv4.icmp crcMode "\"declared\""
attr enum declared,computed
attr mutable ""
par singleMecHost.upf.ipv4.icmp quoteLength 8B
attr mutable ""
attr unit B
par singleMecHost.upf.ipv4.mp typename "\"inet.common.MessageDispatcher\""
par singleMecHost.upf.ipv4.mp displayStringTextFormat "\"processed %p pk (%l)\""
par singleMecHost.upf.ipv4.mp forwardServiceRegistration true
par singleMecHost.upf.ipv4.mp forwardProtocolRegistration true
par singleMecHost.upf.ipv4.ip typename "\"inet.networklayer.ipv4.Ipv4\""
par singleMecHost.upf.ipv4.ip interfaceTableModule "\"singleMecHost.upf.interfaceTable\""
par singleMecHost.upf.ipv4.ip routingTableModule "\"singleMecHost.upf.ipv4.routingTable\""
par singleMecHost.upf.ipv4.ip arpModule "\"singleMecHost.upf.ipv4.arp\""
par singleMecHost.upf.ipv4.ip icmpModule "\"singleMecHost.upf.ipv4.icmp\""
par singleMecHost.upf.ipv4.ip crcMode "\"declared\""
attr enum declared,computed
par singleMecHost.upf.ipv4.ip timeToLive 32
par singleMecHost.upf.ipv4.ip multicastTimeToLive 32
par singleMecHost.upf.ipv4.ip fragmentTimeout 60s
attr unit s
par singleMecHost.upf.ipv4.ip limitedBroadcast false
par singleMecHost.upf.ipv4.ip directBroadcastInterfaces "\"\""
par singleMecHost.upf.ipv4.arp typename "\"inet.networklayer.arp.ipv4.Arp\""
par singleMecHost.upf.ipv4.arp interfaceTableModule "\"singleMecHost.upf.interfaceTable\""
par singleMecHost.upf.ipv4.arp routingTableModule "\"singleMecHost.upf.ipv4.routingTable\""
par singleMecHost.upf.ipv4.arp retryTimeout 1s
attr unit s
par singleMecHost.upf.ipv4.arp retryCount 3
par singleMecHost.upf.ipv4.arp cacheTimeout 120s
attr unit s
par singleMecHost.upf.ipv4.arp proxyArpInterfaces "\"*\""
par singleMecHost.upf.ipv4.lp typename "\"inet.common.MessageDispatcher\""
par singleMecHost.upf.ipv4.lp displayStringTextFormat "\"processed %p pk (%l)\""
par singleMecHost.upf.ipv4.lp forwardServiceRegistration true
par singleMecHost.upf.ipv4.lp forwardProtocolRegistration true
par singleMecHost.upf.ipv4 typename "\"inet.networklayer.ipv4.Ipv4NetworkLayer\""
par singleMecHost.upf.ipv4 forwarding true
par singleMecHost.upf.ipv4 multicastForwarding false
par singleMecHost.upf.ipv4 interfaceTableModule "\"singleMecHost.upf.interfaceTable\""
par singleMecHost.upf.ipv4 displayStringTextFormat "\"%i\""
par singleMecHost.upf.nl typename "\"inet.common.MessageDispatcher\""
par singleMecHost.upf.nl displayStringTextFormat "\"processed %p pk (%l)\""
par singleMecHost.upf.nl forwardServiceRegistration true
par singleMecHost.upf.nl forwardProtocolRegistration true
par singleMecHost.upf.pppIf.phys$i.channel typename "\"ned.IdealChannel\""
par singleMecHost.upf.pppIf.ppp.phys$o.channel typename "\"ned.IdealChannel\""
par singleMecHost.upf.pppIf.ppp.upperLayerOut.channel typename "\"ned.IdealChannel\""
par singleMecHost.upf.pppIf.upperLayerIn.channel typename "\"ned.IdealChannel\""
par singleMecHost.upf.pppIf.queue typename "\"inet.queueing.queue.DropTailQueue\""
par singleMecHost.upf.pppIf.queue displayStringTextFormat "\"contains %p pk (%l) pushed %u\\npulled %o removed %r dropped %d\""
par singleMecHost.upf.pppIf.queue packetCapacity 10000
par singleMecHost.upf.pppIf.queue dataCapacity -1b
attr unit b
par singleMecHost.upf.pppIf.queue dropperClass "\"inet::queueing::PacketAtCollectionEndDropper\""
par singleMecHost.upf.pppIf.queue comparatorClass "\"\""
par singleMecHost.upf.pppIf.queue bufferModule "\"\""
par singleMecHost.upf.pppIf.ppp typename "\"inet.linklayer.ppp.Ppp\""
par singleMecHost.upf.pppIf.ppp interfaceTableModule "\"singleMecHost.upf.interfaceTable\""
par singleMecHost.upf.pppIf.ppp displayStringTextFormat "\"rate: %b\\nsent: %s, rcvd: %r\\nqueue: %q, drop: %d\""
par singleMecHost.upf.pppIf.ppp sendRawBytes false
par singleMecHost.upf.pppIf.ppp mtu 4470B
attr unit B
par singleMecHost.upf.pppIf.ppp stopOperationExtraTime -1s
attr unit s
par singleMecHost.upf.pppIf.ppp stopOperationTimeout 2s
attr unit s
par singleMecHost.upf.pppIf typename "\"inet.linklayer.ppp.PppInterface\""
par singleMecHost.upf.pppIf displayStringTextFormat "\"%a (%i)\\n%m\""
par singleMecHost.upf.pppIf recordPcap false
par singleMecHost.upf.pppIf numPcapRecorders 0
par singleMecHost.upf.pppIf interfaceTableModule "\"singleMecHost.upf.interfaceTable\""
par singleMecHost.upf.udp typename "\"inet.transportlayer.udp.Udp\""
par singleMecHost.upf.udp interfaceTableModule "\"singleMecHost.upf.interfaceTable\""
par singleMecHost.upf.udp icmpModule "\"^.ipv4.icmp\""
par singleMecHost.upf.udp icmpv6Module "\"^.ipv6.icmpv6\""
par singleMecHost.upf.udp crcMode "\"declared\""
attr enum disabled,declared,computed
par singleMecHost.upf.udp defaultMulticastLoop true
par singleMecHost.upf.trafficFlowFilter typename "\"simu5g.corenetwork.trafficFlowFilter.TrafficFlowFilter\""
par singleMecHost.upf.trafficFlowFilter ownerType "\"UPF\""
par singleMecHost.upf.trafficFlowFilter fastForwarding true
par singleMecHost.upf.gtp_user typename "\"simu5g.corenetwork.gtp.GtpUser\""
par singleMecHost.upf.gtp_user interfaceTableModule "\"singleMecHost.upf.interfaceTable\""
par singleMecHost.upf.gtp_user ipOutInterface "\"\""
par singleMecHost.upf.gtp_user localPort 31
par singleMecHost.upf.gtp_user tunnelPeerPort 31
par singleMecHost.upf.gtp_user filter true
par singleMecHost.upf.tn typename "\"inet.common.MessageDispatcher\""
par singleMecHost.upf.tn displayStringTextFormat "\"processed %p pk (%l)\""
par singleMecHost.upf.tn forwardServiceRegistration true
par singleMecHost.upf.tn forwardProtocolRegistration true
par singleMecHost.upf.at typename "\"inet.common.MessageDispatcher\""
par singleMecHost.upf.at displayStringTextFormat "\"processed %p pk (%l)\""
par singleMecHost.upf.at forwardServiceRegistration true
par singleMecHost.upf.at forwardProtocolRegistration true
par singleMecHost.upf typename "\"simu5g.nodes.Upf\""
par singleMecHost.upf hasStatus false
par singleMecHost.upf osgModel "\"\""
par singleMecHost.upf osgModelColor "\"\""
par singleMecHost.upf canvasImage "\"\""
par singleMecHost.upf canvasImageColor "\"\""
par singleMecHost.upf recordPcap false
par singleMecHost.upf numPcapRecorders 0
par singleMecHost.upf numLoInterfaces 1
par singleMecHost.upf numWlanInterfaces 0
par singleMecHost.upf numEthInterfaces 0
par singleMecHost.upf numPppInterfaces 0
par singleMecHost.upf numTunInterfaces 0
par singleMecHost.upf numVirtInterfaces 0
par singleMecHost.upf fcsMode "\"declared\""
attr enum declared,computed
par singleMecHost.upf hasIpv4 true
par singleMecHost.upf hasIpv6 false
par singleMecHost.upf hasGn false
par singleMecHost.upf forwarding true
par singleMecHost.upf multicastForwarding false
par singleMecHost.upf nodeType "\"UPF\""
par singleMecHost.iUpf.pppg$i[0].channel typename "\"ned.IdealChannel\""
par singleMecHost.iUpf.ppp[0].phys$o.channel typename "\"ned.IdealChannel\""
par singleMecHost.iUpf.pppg$i[1].channel typename "\"ned.IdealChannel\""
par singleMecHost.iUpf.ppp[1].phys$o.channel typename "\"ned.IdealChannel\""
par singleMecHost.iUpf.pppg$i[2].channel typename "\"ned.IdealChannel\""
par singleMecHost.iUpf.ppp[2].phys$o.channel typename "\"ned.IdealChannel\""
par singleMecHost.iUpf.interfaceTable typename "\"inet.networklayer.common.InterfaceTable\""
par singleMecHost.iUpf.interfaceTable displayAddresses false
par singleMecHost.iUpf.cb typename "\"inet.common.MessageDispatcher\""
par singleMecHost.iUpf.cb displayStringTextFormat "\"processed %p pk (%l)\""
par singleMecHost.iUpf.cb forwardServiceRegistration true
par singleMecHost.iUpf.cb forwardProtocolRegistration true
par singleMecHost.iUpf.bl typename "\"inet.common.MessageDispatcher\""
par singleMecHost.iUpf.bl displayStringTextFormat "\"processed %p pk (%l)\""
par singleMecHost.iUpf.bl forwardServiceRegistration true
par singleMecHost.iUpf.bl forwardProtocolRegistration true
par singleMecHost.iUpf.li typename "\"inet.common.MessageDispatcher\""
par singleMecHost.iUpf.li displayStringTextFormat "\"processed %p pk (%l)\""
par singleMecHost.iUpf.li forwardServiceRegistration true
par singleMecHost.iUpf.li forwardProtocolRegistration true
par singleMecHost.iUpf.lo[0].upperLayerIn.channel typename "\"ned.IdealChannel\""
par singleMecHost.iUpf.lo[0].lo.upperLayerOut.channel typename "\"ned.IdealChannel\""
par singleMecHost.iUpf.lo[0].lo typename "\"inet.linklayer.loopback.Loopback\""
par singleMecHost.iUpf.lo[0].lo interfaceTableModule "\"singleMecHost.iUpf.interfaceTable\""
par singleMecHost.iUpf.lo[0].lo mtu 4470B
attr unit B
par singleMecHost.iUpf.lo[0] typename "\"inet.linklayer.loopback.LoopbackInterface\""
par singleMecHost.iUpf.lo[0] displayStringTextFormat "\"%a (%i)\\n%m\""
par singleMecHost.iUpf.lo[0] recordPcap false
par singleMecHost.iUpf.lo[0] numPcapRecorders 0
par singleMecHost.iUpf.lo[0] interfaceTableModule "\"singleMecHost.iUpf.interfaceTable\""
par singleMecHost.iUpf.ppp[0].phys$i.channel typename "\"ned.IdealChannel\""
par singleMecHost.iUpf.ppp[0].ppp.phys$o.channel typename "\"ned.IdealChannel\""
par singleMecHost.iUpf.ppp[0].ppp.upperLayerOut.channel typename "\"ned.IdealChannel\""
par singleMecHost.iUpf.ppp[0].upperLayerIn.channel typename "\"ned.IdealChannel\""
par singleMecHost.iUpf.ppp[0].queue typename "\"inet.queueing.queue.DropTailQueue\""
par singleMecHost.iUpf.ppp[0].queue displayStringTextFormat "\"contains %p pk (%l) pushed %u\\npulled %o removed %r dropped %d\""
par singleMecHost.iUpf.ppp[0].queue packetCapacity 10000
par singleMecHost.iUpf.ppp[0].queue dataCapacity -1b
attr unit b
par singleMecHost.iUpf.ppp[0].queue dropperClass "\"inet::queueing::PacketAtCollectionEndDropper\""
par singleMecHost.iUpf.ppp[0].queue comparatorClass "\"\""
par singleMecHost.iUpf.ppp[0].queue bufferModule "\"\""
par singleMecHost.iUpf.ppp[0].ppp typename "\"inet.linklayer.ppp.Ppp\""
par singleMecHost.iUpf.ppp[0].ppp interfaceTableModule "\"singleMecHost.iUpf.interfaceTable\""
par singleMecHost.iUpf.ppp[0].ppp displayStringTextFormat "\"rate: %b\\nsent: %s, rcvd: %r\\nqueue: %q, drop: %d\""
par singleMecHost.iUpf.ppp[0].ppp sendRawBytes false
par singleMecHost.iUpf.ppp[0].ppp mtu 4470B
attr unit B
par singleMecHost.iUpf.ppp[0].ppp stopOperationExtraTime -1s
attr unit s
par singleMecHost.iUpf.ppp[0].ppp stopOperationTimeout 2s
attr unit s
par singleMecHost.iUpf.ppp[0] typename "\"inet.linklayer.ppp.PppInterface\""
par singleMecHost.iUpf.ppp[0] displayStringTextFormat "\"%a (%i)\\n%m\""
par singleMecHost.iUpf.ppp[0] recordPcap false
par singleMecHost.iUpf.ppp[0] numPcapRecorders 0
par singleMecHost.iUpf.ppp[0] interfaceTableModule "\"singleMecHost.iUpf.interfaceTable\""
par singleMecHost.iUpf.ppp[1].phys$i.channel typename "\"ned.IdealChannel\""
par singleMecHost.iUpf.ppp[1].ppp.phys$o.channel typename "\"ned.IdealChannel\""
par singleMecHost.iUpf.ppp[1].ppp.upperLayerOut.channel typename "\"ned.IdealChannel\""
par singleMecHost.iUpf.ppp[1].upperLayerIn.channel typename "\"ned.IdealChannel\""
par singleMecHost.iUpf.ppp[1].queue typename "\"inet.queueing.queue.DropTailQueue\""
par singleMecHost.iUpf.ppp[1].queue displayStringTextFormat "\"contains %p pk (%l) pushed %u\\npulled %o removed %r dropped %d\""
par singleMecHost.iUpf.ppp[1].queue packetCapacity 10000
par singleMecHost.iUpf.ppp[1].queue dataCapacity -1b
attr unit b
par singleMecHost.iUpf.ppp[1].queue dropperClass "\"inet::queueing::PacketAtCollectionEndDropper\""
par singleMecHost.iUpf.ppp[1].queue comparatorClass "\"\""
par singleMecHost.iUpf.ppp[1].queue bufferModule "\"\""
par singleMecHost.iUpf.ppp[1].ppp typename "\"inet.linklayer.ppp.Ppp\""
par singleMecHost.iUpf.ppp[1].ppp interfaceTableModule "\"singleMecHost.iUpf.interfaceTable\""
par singleMecHost.iUpf.ppp[1].ppp displayStringTextFormat "\"rate: %b\\nsent: %s, rcvd: %r\\nqueue: %q, drop: %d\""
par singleMecHost.iUpf.ppp[1].ppp sendRawBytes false
par singleMecHost.iUpf.ppp[1].ppp mtu 4470B
attr unit B
par singleMecHost.iUpf.ppp[1].ppp stopOperationExtraTime -1s
attr unit s
par singleMecHost.iUpf.ppp[1].ppp stopOperationTimeout 2s
attr unit s
par singleMecHost.iUpf.ppp[1] typename "\"inet.linklayer.ppp.PppInterface\""
par singleMecHost.iUpf.ppp[1] displayStringTextFormat "\"%a (%i)\\n%m\""
par singleMecHost.iUpf.ppp[1] recordPcap false
par singleMecHost.iUpf.ppp[1] numPcapRecorders 0
par singleMecHost.iUpf.ppp[1] interfaceTableModule "\"singleMecHost.iUpf.interfaceTable\""
par singleMecHost.iUpf.ppp[2].phys$i.channel typename "\"ned.IdealChannel\""
par singleMecHost.iUpf.ppp[2].ppp.phys$o.channel typename "\"ned.IdealChannel\""
par singleMecHost.iUpf.ppp[2].ppp.upperLayerOut.channel typename "\"ned.IdealChannel\""
par singleMecHost.iUpf.ppp[2].upperLayerIn.channel typename "\"ned.IdealChannel\""
par singleMecHost.iUpf.ppp[2].queue typename "\"inet.queueing.queue.DropTailQueue\""
par singleMecHost.iUpf.ppp[2].queue displayStringTextFormat "\"contains %p pk (%l) pushed %u\\npulled %o removed %r dropped %d\""
par singleMecHost.iUpf.ppp[2].queue packetCapacity 10000
par singleMecHost.iUpf.ppp[2].queue dataCapacity -1b
attr unit b
par singleMecHost.iUpf.ppp[2].queue dropperClass "\"inet::queueing::PacketAtCollectionEndDropper\""
par singleMecHost.iUpf.ppp[2].queue comparatorClass "\"\""
par singleMecHost.iUpf.ppp[2].queue bufferModule "\"\""
par singleMecHost.iUpf.ppp[2].ppp typename "\"inet.linklayer.ppp.Ppp\""
par singleMecHost.iUpf.ppp[2].ppp interfaceTableModule "\"singleMecHost.iUpf.interfaceTable\""
par singleMecHost.iUpf.ppp[2].ppp displayStringTextFormat "\"rate: %b\\nsent: %s, rcvd: %r\\nqueue: %q, drop: %d\""
par singleMecHost.iUpf.ppp[2].ppp sendRawBytes false
par singleMecHost.iUpf.ppp[2].ppp mtu 4470B
attr unit B
par singleMecHost.iUpf.ppp[2].ppp stopOperationExtraTime -1s
attr unit s
par singleMecHost.iUpf.ppp[2].ppp stopOperationTimeout 2s
attr unit s
par singleMecHost.iUpf.ppp[2] typename "\"inet.linklayer.ppp.PppInterface\""
par singleMecHost.iUpf.ppp[2] displayStringTextFormat "\"%a (%i)\\n%m\""
par singleMecHost.iUpf.ppp[2] recordPcap false
par singleMecHost.iUpf.ppp[2] numPcapRecorders 0
par singleMecHost.iUpf.ppp[2] interfaceTableModule "\"singleMecHost.iUpf.interfaceTable\""
par singleMecHost.iUpf.ipv4.transportIn.channel typename "\"ned.IdealChannel\""
par singleMecHost.iUpf.ipv4.up.out[0].channel typename "\"ned.IdealChannel\""
par singleMecHost.iUpf.ipv4.lp.out[2].channel typename "\"ned.IdealChannel\""
par singleMecHost.iUpf.ipv4.ifIn.channel typename "\"ned.IdealChannel\""
par singleMecHost.iUpf.ipv4.configurator typename "\"inet.networklayer.configurator.ipv4.Ipv4NodeConfigurator\""
par singleMecHost.iUpf.ipv4.configurator interfaceTableModule "\"singleMecHost.iUpf.interfaceTable\""
par singleMecHost.iUpf.ipv4.configurator routingTableModule "\"singleMecHost.iUpf.ipv4.routingTable\""
par singleMecHost.iUpf.ipv4.configurator networkConfiguratorModule "\"configurator\""
par singleMecHost.iUpf.ipv4.configurator configureRoutingTable true
par singleMecHost.iUpf.ipv4.routingTable typename "\"inet.networklayer.ipv4.Ipv4RoutingTable\""
par singleMecHost.iUpf.ipv4.routingTable interfaceTableModule "\"singleMecHost.iUpf.interfaceTable\""
par singleMecHost.iUpf.ipv4.routingTable routerId "\"auto\""
par singleMecHost.iUpf.ipv4.routingTable netmaskRoutes "\"*\""
par singleMecHost.iUpf.ipv4.routingTable forwarding true
par singleMecHost.iUpf.ipv4.routingTable multicastForwarding false
par singleMecHost.iUpf.ipv4.routingTable useAdminDist false
par singleMecHost.iUpf.ipv4.routingTable routingFile "\"\""
par singleMecHost.iUpf.ipv4.natTable typename "\"inet.networklayer.ipv4.Ipv4NatTable\""
par singleMecHost.iUpf.ipv4.natTable networkProtocolModule "\"^.ip\""
par singleMecHost.iUpf.ipv4.natTable config "<config/> at content:1"
par singleMecHost.iUpf.ipv4.up typename "\"inet.common.MessageDispatcher\""
par singleMecHost.iUpf.ipv4.up displayStringTextFormat "\"processed %p pk (%l)\""
par singleMecHost.iUpf.ipv4.up forwardServiceRegistration true
par singleMecHost.iUpf.ipv4.up forwardProtocolRegistration true
par singleMecHost.iUpf.ipv4.igmp typename "\"inet.networklayer.ipv4.Igmpv2\""
par singleMecHost.iUpf.ipv4.igmp interfaceTableModule "\"singleMecHost.iUpf.interfaceTable\""
par singleMecHost.iUpf.ipv4.igmp routingTableModule "\"singleMecHost.iUpf.ipv4.routingTable\""
par singleMecHost.iUpf.ipv4.igmp crcMode "\"declared\""
attr enum declared,computed
par singleMecHost.iUpf.ipv4.igmp enabled true
par singleMecHost.iUpf.ipv4.igmp robustnessVariable 2
par singleMecHost.iUpf.ipv4.igmp queryInterval 125s
attr unit s
par singleMecHost.iUpf.ipv4.igmp queryResponseInterval 10s
attr unit s
par singleMecHost.iUpf.ipv4.igmp groupMembershipInterval 260s
attr unit s
par singleMecHost.iUpf.ipv4.igmp otherQuerierPresentInterval 255s
attr unit s
par singleMecHost.iUpf.ipv4.igmp startupQueryInterval 31.25s
attr unit s
par singleMecHost.iUpf.ipv4.igmp startupQueryCount 2
par singleMecHost.iUpf.ipv4.igmp lastMemberQueryInterval 1s
attr unit s
par singleMecHost.iUpf.ipv4.igmp lastMemberQueryCount 2
par singleMecHost.iUpf.ipv4.igmp unsolicitedReportInterval 10s
attr unit s
par singleMecHost.iUpf.ipv4.icmp typename "\"inet.networklayer.ipv4.Icmp\""
par singleMecHost.iUpf.ipv4.icmp interfaceTableModule "\"singleMecHost.iUpf.interfaceTable\""
par singleMecHost.iUpf.ipv4.icmp routingTableModule "\"singleMecHost.iUpf.ipv4.routingTable\""
par singleMecHost.iUpf.ipv4.icmp crcMode "\"declared\""
attr enum declared,computed
attr mutable ""
par singleMecHost.iUpf.ipv4.icmp quoteLength 8B
attr mutable ""
attr unit B
par singleMecHost.iUpf.ipv4.mp typename "\"inet.common.MessageDispatcher\""
par singleMecHost.iUpf.ipv4.mp displayStringTextFormat "\"processed %p pk (%l)\""
par singleMecHost.iUpf.ipv4.mp forwardServiceRegistration true
par singleMecHost.iUpf.ipv4.mp forwardProtocolRegistration true
par singleMecHost.iUpf.ipv4.ip typename "\"inet.networklayer.ipv4.Ipv4\""
par singleMecHost.iUpf.ipv4.ip interfaceTableModule "\"singleMecHost.iUpf.interfaceTable\""
par singleMecHost.iUpf.ipv4.ip routingTableModule "\"singleMecHost.iUpf.ipv4.routingTable\""
par singleMecHost.iUpf.ipv4.ip arpModule "\"singleMecHost.iUpf.ipv4.arp\""
par singleMecHost.iUpf.ipv4.ip icmpModule "\"singleMecHost.iUpf.ipv4.icmp\""
par singleMecHost.iUpf.ipv4.ip crcMode "\"declared\""
attr enum declared,computed
par singleMecHost.iUpf.ipv4.ip timeToLive 32
par singleMecHost.iUpf.ipv4.ip multicastTimeToLive 32
par singleMecHost.iUpf.ipv4.ip fragmentTimeout 60s
attr unit s
par singleMecHost.iUpf.ipv4.ip limitedBroadcast false
par singleMecHost.iUpf.ipv4.ip directBroadcastInterfaces "\"\""
par singleMecHost.iUpf.ipv4.arp typename "\"inet.networklayer.arp.ipv4.Arp\""
par singleMecHost.iUpf.ipv4.arp interfaceTableModule "\"singleMecHost.iUpf.interfaceTable\""
par singleMecHost.iUpf.ipv4.arp routingTableModule "\"singleMecHost.iUpf.ipv4.routingTable\""
par singleMecHost.iUpf.ipv4.arp retryTimeout 1s
attr unit s
par singleMecHost.iUpf.ipv4.arp retryCount 3
par singleMecHost.iUpf.ipv4.arp cacheTimeout 120s
attr unit s
par singleMecHost.iUpf.ipv4.arp proxyArpInterfaces "\"*\""
par singleMecHost.iUpf.ipv4.lp typename "\"inet.common.MessageDispatcher\""
par singleMecHost.iUpf.ipv4.lp displayStringTextFormat "\"processed %p pk (%l)\""
par singleMecHost.iUpf.ipv4.lp forwardServiceRegistration true
par singleMecHost.iUpf.ipv4.lp forwardProtocolRegistration true
par singleMecHost.iUpf.ipv4 typename "\"inet.networklayer.ipv4.Ipv4NetworkLayer\""
par singleMecHost.iUpf.ipv4 forwarding true
par singleMecHost.iUpf.ipv4 multicastForwarding false
par singleMecHost.iUpf.ipv4 interfaceTableModule "\"singleMecHost.iUpf.interfaceTable\""
par singleMecHost.iUpf.ipv4 displayStringTextFormat "\"%i\""
par singleMecHost.iUpf.nl typename "\"inet.common.MessageDispatcher\""
par singleMecHost.iUpf.nl displayStringTextFormat "\"processed %p pk (%l)\""
par singleMecHost.iUpf.nl forwardServiceRegistration true
par singleMecHost.iUpf.nl forwardProtocolRegistration true
par singleMecHost.iUpf.pppIf.phys$i.channel typename "\"ned.IdealChannel\""
par singleMecHost.iUpf.pppIf.ppp.phys$o.channel typename "\"ned.IdealChannel\""
par singleMecHost.iUpf.pppIf.ppp.upperLayerOut.channel typename "\"ned.IdealChannel\""
par singleMecHost.iUpf.pppIf.upperLayerIn.channel typename "\"ned.IdealChannel\""
par singleMecHost.iUpf.pppIf.queue typename "\"inet.queueing.queue.DropTailQueue\""
par singleMecHost.iUpf.pppIf.queue displayStringTextFormat "\"contains %p pk (%l) pushed %u\\npulled %o removed %r dropped %d\""
par singleMecHost.iUpf.pppIf.queue packetCapacity 10000
par singleMecHost.iUpf.pppIf.queue dataCapacity -1b
attr unit b
par singleMecHost.iUpf.pppIf.queue dropperClass "\"inet::queueing::PacketAtCollectionEndDropper\""
par singleMecHost.iUpf.pppIf.queue comparatorClass "\"\""
par singleMecHost.iUpf.pppIf.queue bufferModule "\"\""
par singleMecHost.iUpf.pppIf.ppp typename "\"inet.linklayer.ppp.Ppp\""
par singleMecHost.iUpf.pppIf.ppp interfaceTableModule "\"singleMecHost.iUpf.interfaceTable\""
par singleMecHost.iUpf.pppIf.ppp displayStringTextFormat "\"rate: %b\\nsent: %s, rcvd: %r\\nqueue: %q, drop: %d\""
par singleMecHost.iUpf.pppIf.ppp sendRawBytes false
par singleMecHost.iUpf.pppIf.ppp mtu 4470B
attr unit B
par singleMecHost.iUpf.pppIf.ppp stopOperationExtraTime -1s
attr unit s
par singleMecHost.iUpf.pppIf.ppp stopOperationTimeout 2s
attr unit s
par singleMecHost.iUpf.pppIf typename "\"inet.linklayer.ppp.PppInterface\""
par singleMecHost.iUpf.pppIf displayStringTextFormat "\"%a (%i)\\n%m\""
par singleMecHost.iUpf.pppIf recordPcap false
par singleMecHost.iUpf.pppIf numPcapRecorders 0
par singleMecHost.iUpf.pppIf interfaceTableModule "\"singleMecHost.iUpf.interfaceTable\""
par singleMecHost.iUpf.udp typename "\"inet.transportlayer.udp.Udp\""
par singleMecHost.iUpf.udp interfaceTableModule "\"singleMecHost.iUpf.interfaceTable\""
par singleMecHost.iUpf.udp icmpModule "\"^.ipv4.icmp\""
par singleMecHost.iUpf.udp icmpv6Module "\"^.ipv6.icmpv6\""
par singleMecHost.iUpf.udp crcMode "\"declared\""
attr enum disabled,declared,computed
par singleMecHost.iUpf.udp defaultMulticastLoop true
par singleMecHost.iUpf.trafficFlowFilter typename "\"simu5g.corenetwork.trafficFlowFilter.TrafficFlowFilter\""
par singleMecHost.iUpf.trafficFlowFilter ownerType "\"UPF\""
par singleMecHost.iUpf.trafficFlowFilter fastForwarding true
par singleMecHost.iUpf.gtp_user typename "\"simu5g.corenetwork.gtp.GtpUser\""
par singleMecHost.iUpf.gtp_user interfaceTableModule "\"singleMecHost.iUpf.interfaceTable\""
par singleMecHost.iUpf.gtp_user ipOutInterface "\"\""
par singleMecHost.iUpf.gtp_user localPort 31
par singleMecHost.iUpf.gtp_user tunnelPeerPort 31
par singleMecHost.iUpf.gtp_user filter true
par singleMecHost.iUpf.tn typename "\"inet.common.MessageDispatcher\""
par singleMecHost.iUpf.tn displayStringTextFormat "\"processed %p pk (%l)\""
par singleMecHost.iUpf.tn forwardServiceRegistration true
par singleMecHost.iUpf.tn forwardProtocolRegistration true
par singleMecHost.iUpf.at typename "\"inet.common.MessageDispatcher\""
par singleMecHost.iUpf.at displayStringTextFormat "\"processed %p pk (%l)\""
par singleMecHost.iUpf.at forwardServiceRegistration true
par singleMecHost.iUpf.at forwardProtocolRegistration true
par singleMecHost.iUpf typename "\"simu5g.nodes.Upf\""
par singleMecHost.iUpf hasStatus false
par singleMecHost.iUpf osgModel "\"\""
par singleMecHost.iUpf osgModelColor "\"\""
par singleMecHost.iUpf canvasImage "\"\""
par singleMecHost.iUpf canvasImageColor "\"\""
par singleMecHost.iUpf recordPcap false
par singleMecHost.iUpf numPcapRecorders 0
par singleMecHost.iUpf numLoInterfaces 1
par singleMecHost.iUpf numWlanInterfaces 0
par singleMecHost.iUpf numEthInterfaces 0
par singleMecHost.iUpf numPppInterfaces 0
par singleMecHost.iUpf numTunInterfaces 0
par singleMecHost.iUpf numVirtInterfaces 0
par singleMecHost.iUpf fcsMode "\"declared\""
attr enum declared,computed
par singleMecHost.iUpf hasIpv4 true
par singleMecHost.iUpf hasIpv6 false
par singleMecHost.iUpf hasGn false
par singleMecHost.iUpf forwarding true
par singleMecHost.iUpf multicastForwarding false
par singleMecHost.iUpf nodeType "\"UPF\""
par singleMecHost.gNodeB1.interfaceTable typename "\"inet.networklayer.common.InterfaceTable\""
par singleMecHost.gNodeB1.interfaceTable displayAddresses false
par singleMecHost.gNodeB1.mobility typename "\"inet.mobility.static.StationaryMobility\""
par singleMecHost.gNodeB1.mobility subjectModule "\"^\""
par singleMecHost.gNodeB1.mobility coordinateSystemModule "\"\""
par singleMecHost.gNodeB1.mobility displayStringTextFormat "\"p: %p\\nv: %v\""
attr mutable ""
par singleMecHost.gNodeB1.mobility updateDisplayString true
par singleMecHost.gNodeB1.mobility constraintAreaMinX "-inf m"
attr unit m
par singleMecHost.gNodeB1.mobility constraintAreaMinY "-inf m"
attr unit m
par singleMecHost.gNodeB1.mobility constraintAreaMinZ 0m
attr unit m
par singleMecHost.gNodeB1.mobility constraintAreaMaxX "inf m"
attr unit m
par singleMecHost.gNodeB1.mobility constraintAreaMaxY "inf m"
attr unit m
par singleMecHost.gNodeB1.mobility constraintAreaMaxZ 0m
attr unit m
par singleMecHost.gNodeB1.mobility initialX "nan m"
attr unit m
par singleMecHost.gNodeB1.mobility initialY "nan m"
attr unit m
par singleMecHost.gNodeB1.mobility initialZ 0m
attr unit m
par singleMecHost.gNodeB1.mobility initialLatitude "nan deg"
attr unit deg
par singleMecHost.gNodeB1.mobility initialLongitude "nan deg"
attr unit deg
par singleMecHost.gNodeB1.mobility initialAltitude 0m
attr unit m
par singleMecHost.gNodeB1.mobility initialHeading 0deg
attr unit deg
par singleMecHost.gNodeB1.mobility initialElevation 0deg
attr unit deg
par singleMecHost.gNodeB1.mobility initialBank 0deg
attr unit deg
par singleMecHost.gNodeB1.mobility initFromDisplayString true
par singleMecHost.gNodeB1.mobility updateFromDisplayString true
par singleMecHost.gNodeB1.cellInfo typename "\"simu5g.common.cellInfo.CellInfo\""
par singleMecHost.gNodeB1.cellInfo constraintAreaMinX "-inf m"
attr unit m
par singleMecHost.gNodeB1.cellInfo constraintAreaMinY "-inf m"
attr unit m
par singleMecHost.gNodeB1.cellInfo constraintAreaMaxX "inf m"
attr unit m
par singleMecHost.gNodeB1.cellInfo constraintAreaMaxY "inf m"
attr unit m
par singleMecHost.gNodeB1.cellInfo speed 0mps
attr unit mps
par singleMecHost.gNodeB1.cellInfo positionUpdateInterval 0.001s
attr unit s
par singleMecHost.gNodeB1.cellInfo broadcastMessageInterval 0.5s
attr unit s
par singleMecHost.gNodeB1.cellInfo microCell false
par singleMecHost.gNodeB1.cellInfo numRus 0
par singleMecHost.gNodeB1.cellInfo ruRange 0
par singleMecHost.gNodeB1.cellInfo ruStartingAngle 0deg
attr unit deg
par singleMecHost.gNodeB1.cellInfo ruTxPower "\"0;\""
par singleMecHost.gNodeB1.cellInfo antennaCws "\"1;\""
par singleMecHost.gNodeB1.cellInfo rbyDl 12
par singleMecHost.gNodeB1.cellInfo rbyUl 12
par singleMecHost.gNodeB1.cellInfo rbxDl 7
par singleMecHost.gNodeB1.cellInfo rbxUl 7
par singleMecHost.gNodeB1.cellInfo rbPilotDl 3
par singleMecHost.gNodeB1.cellInfo rbPilotUl 0
par singleMecHost.gNodeB1.cellInfo signalDl 1
par singleMecHost.gNodeB1.cellInfo signalUl 1
par singleMecHost.gNodeB1.cellInfo numPreferredBands 1
par singleMecHost.gNodeB1.cellularNic.ip2nic.upperLayerOut.channel typename "\"ned.DelayChannel\""
par singleMecHost.gNodeB1.cellularNic.ip2nic.upperLayerOut.channel disabled false
attr mutable ""
par singleMecHost.gNodeB1.cellularNic.ip2nic.upperLayerOut.channel delay 0s
attr mutable ""
attr unit s
par singleMecHost.gNodeB1.cellularNic.upperLayerIn.channel typename "\"ned.DelayChannel\""
par singleMecHost.gNodeB1.cellularNic.upperLayerIn.channel disabled false
attr mutable ""
par singleMecHost.gNodeB1.cellularNic.upperLayerIn.channel delay 0s
attr mutable ""
attr unit s
par singleMecHost.gNodeB1.cellularNic.ip2nic typename "\"simu5g.stack.ip2nic.IP2Nic\""
par singleMecHost.gNodeB1.cellularNic.ip2nic nodeType "\"GNODEB\""
par singleMecHost.gNodeB1.cellularNic.ip2nic interfaceTableModule "\"singleMecHost.gNodeB1.interfaceTable\""
par singleMecHost.gNodeB1.cellularNic.ip2nic interfaceName "\"cellular\""
par singleMecHost.gNodeB1.cellularNic.ip2nic routingTableModule "\"^.ipv4.routingTable\""
par "singleMecHost.gNodeB1.cellularNic.pdcpRrc.NRRxPdcpEntity Cid: 134283265" typename "\"simu5g.stack.pdcp_rrc.NRRxPdcpEntity\""
par "singleMecHost.gNodeB1.cellularNic.pdcpRrc.NRRxPdcpEntity Cid: 134283265" outOfOrderDelivery false
par "singleMecHost.gNodeB1.cellularNic.pdcpRrc.NRRxPdcpEntity Cid: 134283265" timeout 0.1s
attr unit s
par "singleMecHost.gNodeB1.cellularNic.pdcpRrc.NRRxPdcpEntity Cid: 134283265" rxWindowSize 4096
par "singleMecHost.gNodeB1.cellularNic.pdcpRrc.NRRxPdcpEntity Cid: 134348801" typename "\"simu5g.stack.pdcp_rrc.NRRxPdcpEntity\""
par "singleMecHost.gNodeB1.cellularNic.pdcpRrc.NRRxPdcpEntity Cid: 134348801" outOfOrderDelivery false
par "singleMecHost.gNodeB1.cellularNic.pdcpRrc.NRRxPdcpEntity Cid: 134348801" timeout 0.1s
attr unit s
par "singleMecHost.gNodeB1.cellularNic.pdcpRrc.NRRxPdcpEntity Cid: 134348801" rxWindowSize 4096
par "singleMecHost.gNodeB1.cellularNic.pdcpRrc.NRRxPdcpEntity Cid: 134414337" typename "\"simu5g.stack.pdcp_rrc.NRRxPdcpEntity\""
par "singleMecHost.gNodeB1.cellularNic.pdcpRrc.NRRxPdcpEntity Cid: 134414337" outOfOrderDelivery false
par "singleMecHost.gNodeB1.cellularNic.pdcpRrc.NRRxPdcpEntity Cid: 134414337" timeout 0.1s
attr unit s
par "singleMecHost.gNodeB1.cellularNic.pdcpRrc.NRRxPdcpEntity Cid: 134414337" rxWindowSize 4096
par "singleMecHost.gNodeB1.cellularNic.pdcpRrc.NRTxPdcpEntity Cid: 134283265" typename "\"simu5g.stack.pdcp_rrc.NRTxPdcpEntity\""
par "singleMecHost.gNodeB1.cellularNic.pdcpRrc.NRTxPdcpEntity Cid: 134348802" typename "\"simu5g.stack.pdcp_rrc.NRTxPdcpEntity\""
par "singleMecHost.gNodeB1.cellularNic.pdcpRrc.NRTxPdcpEntity Cid: 134414339" typename "\"simu5g.stack.pdcp_rrc.NRTxPdcpEntity\""
par "singleMecHost.gNodeB1.cellularNic.pdcpRrc.NRRxPdcpEntity Cid: 134283266" typename "\"simu5g.stack.pdcp_rrc.NRRxPdcpEntity\""
par "singleMecHost.gNodeB1.cellularNic.pdcpRrc.NRRxPdcpEntity Cid: 134283266" outOfOrderDelivery false
par "singleMecHost.gNodeB1.cellularNic.pdcpRrc.NRRxPdcpEntity Cid: 134283266" timeout 0.1s
attr unit s
par "singleMecHost.gNodeB1.cellularNic.pdcpRrc.NRRxPdcpEntity Cid: 134283266" rxWindowSize 4096
par "singleMecHost.gNodeB1.cellularNic.pdcpRrc.NRRxPdcpEntity Cid: 134348802" typename "\"simu5g.stack.pdcp_rrc.NRRxPdcpEntity\""
par "singleMecHost.gNodeB1.cellularNic.pdcpRrc.NRRxPdcpEntity Cid: 134348802" outOfOrderDelivery false
par "singleMecHost.gNodeB1.cellularNic.pdcpRrc.NRRxPdcpEntity Cid: 134348802" timeout 0.1s
attr unit s
par "singleMecHost.gNodeB1.cellularNic.pdcpRrc.NRRxPdcpEntity Cid: 134348802" rxWindowSize 4096
par "singleMecHost.gNodeB1.cellularNic.pdcpRrc.NRRxPdcpEntity Cid: 134414338" typename "\"simu5g.stack.pdcp_rrc.NRRxPdcpEntity\""
par "singleMecHost.gNodeB1.cellularNic.pdcpRrc.NRRxPdcpEntity Cid: 134414338" outOfOrderDelivery false
par "singleMecHost.gNodeB1.cellularNic.pdcpRrc.NRRxPdcpEntity Cid: 134414338" timeout 0.1s
attr unit s
par "singleMecHost.gNodeB1.cellularNic.pdcpRrc.NRRxPdcpEntity Cid: 134414338" rxWindowSize 4096
par "singleMecHost.gNodeB1.cellularNic.pdcpRrc.NRTxPdcpEntity Cid: 134283268" typename "\"simu5g.stack.pdcp_rrc.NRTxPdcpEntity\""
par "singleMecHost.gNodeB1.cellularNic.pdcpRrc.NRTxPdcpEntity Cid: 134348805" typename "\"simu5g.stack.pdcp_rrc.NRTxPdcpEntity\""
par "singleMecHost.gNodeB1.cellularNic.pdcpRrc.NRTxPdcpEntity Cid: 134414342" typename "\"simu5g.stack.pdcp_rrc.NRTxPdcpEntity\""
par singleMecHost.gNodeB1.cellularNic.pdcpRrc typename "\"simu5g.stack.pdcp_rrc.NRPdcpRrcEnb\""
par singleMecHost.gNodeB1.cellularNic.pdcpRrc headerCompressedSize -1B
attr unit B
par singleMecHost.gNodeB1.cellularNic.pdcpRrc conversationalRlc 1
attr enum TM,UM,AM,UNKNOWN_RLC_TYPE
par singleMecHost.gNodeB1.cellularNic.pdcpRrc streamingRlc 1
attr enum TM,UM,AM,UNKNOWN_RLC_TYPE
par singleMecHost.gNodeB1.cellularNic.pdcpRrc interactiveRlc 1
attr enum TM,UM,AM,UNKNOWN_RLC_TYPE
par singleMecHost.gNodeB1.cellularNic.pdcpRrc backgroundRlc 1
attr enum TM,UM,AM,UNKNOWN_RLC_TYPE
par singleMecHost.gNodeB1.cellularNic.rlc.tm typename "\"simu5g.stack.rlc.LteRlcTm\""
par singleMecHost.gNodeB1.cellularNic.rlc.tm queueSize 2097152B
attr unit B
par singleMecHost.gNodeB1.cellularNic.rlc.um typename "\"simu5g.stack.rlc.LteRlcUmD2D\""
par singleMecHost.gNodeB1.cellularNic.rlc.um queueSize 2097152B
attr unit B
par singleMecHost.gNodeB1.cellularNic.rlc.um mapAllLcidsToSingleBearer false
par singleMecHost.gNodeB1.cellularNic.rlc.am typename "\"simu5g.stack.rlc.LteRlcAm\""
par singleMecHost.gNodeB1.cellularNic.rlc.mux typename "\"simu5g.stack.rlc.LteRlcMux\""
par "singleMecHost.gNodeB1.cellularNic.rlc.UmRxEntity Lcid: 1 cid: 134283265" typename "\"simu5g.stack.rlc.UmRxEntity\""
par "singleMecHost.gNodeB1.cellularNic.rlc.UmRxEntity Lcid: 1 cid: 134283265" timeout 1s
attr unit s
par "singleMecHost.gNodeB1.cellularNic.rlc.UmRxEntity Lcid: 1 cid: 134283265" rxWindowSize 16
par "singleMecHost.gNodeB1.cellularNic.rlc.UmRxEntity Lcid: 1 cid: 134348801" typename "\"simu5g.stack.rlc.UmRxEntity\""
par "singleMecHost.gNodeB1.cellularNic.rlc.UmRxEntity Lcid: 1 cid: 134348801" timeout 1s
attr unit s
par "singleMecHost.gNodeB1.cellularNic.rlc.UmRxEntity Lcid: 1 cid: 134348801" rxWindowSize 16
par "singleMecHost.gNodeB1.cellularNic.rlc.UmRxEntity Lcid: 1 cid: 134414337" typename "\"simu5g.stack.rlc.UmRxEntity\""
par "singleMecHost.gNodeB1.cellularNic.rlc.UmRxEntity Lcid: 1 cid: 134414337" timeout 1s
attr unit s
par "singleMecHost.gNodeB1.cellularNic.rlc.UmRxEntity Lcid: 1 cid: 134414337" rxWindowSize 16
par "singleMecHost.gNodeB1.cellularNic.rlc.UmTxEntity Lcid: 1" typename "\"simu5g.stack.rlc.UmTxEntity\""
par "singleMecHost.gNodeB1.cellularNic.rlc.UmTxEntity Lcid: 1" fragmentSize 30B
attr unit B
par "singleMecHost.gNodeB1.cellularNic.rlc.UmTxEntity Lcid: 2" typename "\"simu5g.stack.rlc.UmTxEntity\""
par "singleMecHost.gNodeB1.cellularNic.rlc.UmTxEntity Lcid: 2" fragmentSize 30B
attr unit B
par "singleMecHost.gNodeB1.cellularNic.rlc.UmTxEntity Lcid: 3" typename "\"simu5g.stack.rlc.UmTxEntity\""
par "singleMecHost.gNodeB1.cellularNic.rlc.UmTxEntity Lcid: 3" fragmentSize 30B
attr unit B
par "singleMecHost.gNodeB1.cellularNic.rlc.UmRxEntity Lcid: 2 cid: 134283266" typename "\"simu5g.stack.rlc.UmRxEntity\""
par "singleMecHost.gNodeB1.cellularNic.rlc.UmRxEntity Lcid: 2 cid: 134283266" timeout 1s
attr unit s
par "singleMecHost.gNodeB1.cellularNic.rlc.UmRxEntity Lcid: 2 cid: 134283266" rxWindowSize 16
par "singleMecHost.gNodeB1.cellularNic.rlc.UmRxEntity Lcid: 2 cid: 134348802" typename "\"simu5g.stack.rlc.UmRxEntity\""
par "singleMecHost.gNodeB1.cellularNic.rlc.UmRxEntity Lcid: 2 cid: 134348802" timeout 1s
attr unit s
par "singleMecHost.gNodeB1.cellularNic.rlc.UmRxEntity Lcid: 2 cid: 134348802" rxWindowSize 16
par "singleMecHost.gNodeB1.cellularNic.rlc.UmRxEntity Lcid: 2 cid: 134414338" typename "\"simu5g.stack.rlc.UmRxEntity\""
par "singleMecHost.gNodeB1.cellularNic.rlc.UmRxEntity Lcid: 2 cid: 134414338" timeout 1s
attr unit s
par "singleMecHost.gNodeB1.cellularNic.rlc.UmRxEntity Lcid: 2 cid: 134414338" rxWindowSize 16
par "singleMecHost.gNodeB1.cellularNic.rlc.UmTxEntity Lcid: 4" typename "\"simu5g.stack.rlc.UmTxEntity\""
par "singleMecHost.gNodeB1.cellularNic.rlc.UmTxEntity Lcid: 4" fragmentSize 30B
attr unit B
par "singleMecHost.gNodeB1.cellularNic.rlc.UmTxEntity Lcid: 5" typename "\"simu5g.stack.rlc.UmTxEntity\""
par "singleMecHost.gNodeB1.cellularNic.rlc.UmTxEntity Lcid: 5" fragmentSize 30B
attr unit B
par "singleMecHost.gNodeB1.cellularNic.rlc.UmTxEntity Lcid: 6" typename "\"simu5g.stack.rlc.UmTxEntity\""
par "singleMecHost.gNodeB1.cellularNic.rlc.UmTxEntity Lcid: 6" fragmentSize 30B
attr unit B
par singleMecHost.gNodeB1.cellularNic.rlc typename "\"simu5g.stack.rlc.LteRlc\""
par singleMecHost.gNodeB1.cellularNic.rlc LteRlcUmType "\"LteRlcUm\""
par singleMecHost.gNodeB1.cellularNic.rlc d2dCapable true
par singleMecHost.gNodeB1.cellularNic.rlc umType "\"LteRlcUmD2D\""
par singleMecHost.gNodeB1.cellularNic.mac typename "\"simu5g.stack.mac.NRMacGnb\""
par singleMecHost.gNodeB1.cellularNic.mac interfaceTableModule "\"singleMecHost.gNodeB1.interfaceTable\""
par singleMecHost.gNodeB1.cellularNic.mac interfaceName "\"cellular\""
par singleMecHost.gNodeB1.cellularNic.mac queueSize 2097152B
attr unit B
par singleMecHost.gNodeB1.cellularNic.mac muMimo true
par singleMecHost.gNodeB1.cellularNic.mac harqProcesses 8
par singleMecHost.gNodeB1.cellularNic.mac maxHarqRtx 3
par singleMecHost.gNodeB1.cellularNic.mac harqFbEvaluationTimer 4
par singleMecHost.gNodeB1.cellularNic.mac statDisplay false
par singleMecHost.gNodeB1.cellularNic.mac amcType "\"NRAmc\""
par singleMecHost.gNodeB1.cellularNic.mac amcMode "\"AUTO\""
par singleMecHost.gNodeB1.cellularNic.mac muMimoMinDistance 50
par singleMecHost.gNodeB1.cellularNic.mac rbAllocationType "\"localized\""
par singleMecHost.gNodeB1.cellularNic.mac summaryLowerBound 0.005s
attr unit s
par singleMecHost.gNodeB1.cellularNic.mac summaryUpperBound 0.02s
attr unit s
par singleMecHost.gNodeB1.cellularNic.mac fbhbCapacityDl 5
par singleMecHost.gNodeB1.cellularNic.mac fbhbCapacityUl 5
par singleMecHost.gNodeB1.cellularNic.mac fbhbCapacityD2D 5
par singleMecHost.gNodeB1.cellularNic.mac pmiWeight 0
par singleMecHost.gNodeB1.cellularNic.mac cqiWeight 0
par singleMecHost.gNodeB1.cellularNic.mac eNodeBCount 0
par singleMecHost.gNodeB1.cellularNic.mac schedulingDisciplineDl "\"MAXCI\""
par singleMecHost.gNodeB1.cellularNic.mac schedulingDisciplineUl "\"MAXCI\""
par singleMecHost.gNodeB1.cellularNic.mac pfAlpha 0.95
par singleMecHost.gNodeB1.cellularNic.mac pilotMode "\"ROBUST_CQI\""
par singleMecHost.gNodeB1.cellularNic.mac usePreconfiguredTxParams false
par singleMecHost.gNodeB1.cellularNic.mac d2dCqi 7
par singleMecHost.gNodeB1.cellularNic.mac reuseD2D false
par singleMecHost.gNodeB1.cellularNic.mac reuseD2DMulti false
par singleMecHost.gNodeB1.cellularNic.mac conflictGraphUpdatePeriod 1s
attr unit s
par singleMecHost.gNodeB1.cellularNic.mac conflictGraphThreshold 90
par singleMecHost.gNodeB1.cellularNic.mac conflictGraphD2DInterferenceRadius -1m
attr unit m
par singleMecHost.gNodeB1.cellularNic.mac conflictGraphD2DMultiTxRadius -1m
attr unit m
par singleMecHost.gNodeB1.cellularNic.mac conflictGraphD2DMultiInterferenceRadius -1m
attr unit m
par singleMecHost.gNodeB1.cellularNic.mac msHarqInterrupt true
par singleMecHost.gNodeB1.cellularNic.mac msClearRlcBuffer true
par singleMecHost.gNodeB1.cellularNic.phy typename "\"simu5g.stack.phy.LtePhyEnbD2D\""
par singleMecHost.gNodeB1.cellularNic.phy ueTxPower 26
par singleMecHost.gNodeB1.cellularNic.phy eNodeBTxPower 46
par singleMecHost.gNodeB1.cellularNic.phy microTxPower 30
par singleMecHost.gNodeB1.cellularNic.phy txDirection "\"OMNI\""
par singleMecHost.gNodeB1.cellularNic.phy txAngle 0
par singleMecHost.gNodeB1.cellularNic.phy dynamicCellAssociation false
par singleMecHost.gNodeB1.cellularNic.phy enableHandover false
par singleMecHost.gNodeB1.cellularNic.phy handoverLatency 0.05s
attr unit s
par singleMecHost.gNodeB1.cellularNic.phy enableMulticastD2DRangeCheck false
par singleMecHost.gNodeB1.cellularNic.phy multicastD2DRange 1000m
attr unit m
par singleMecHost.gNodeB1.cellularNic.phy targetBler 0.01
par singleMecHost.gNodeB1.cellularNic.phy lambdaMinTh 0.02
par singleMecHost.gNodeB1.cellularNic.phy lambdaMaxTh 0.2
par singleMecHost.gNodeB1.cellularNic.phy lambdaRatioTh 20
par singleMecHost.gNodeB1.cellularNic.phy enableD2DCqiReporting true
par singleMecHost.gNodeB1.cellularNic.channelModel[0] typename "\"simu5g.stack.phy.ChannelModel.NRChannelModel\""
par singleMecHost.gNodeB1.cellularNic.channelModel[0] componentCarrierIndex 0
par singleMecHost.gNodeB1.cellularNic.channelModel[0] shadowing true
par singleMecHost.gNodeB1.cellularNic.channelModel[0] scenario "\"URBAN_MACROCELL\""
par singleMecHost.gNodeB1.cellularNic.channelModel[0] nodeb_height 25
par singleMecHost.gNodeB1.cellularNic.channelModel[0] building_height 20
par singleMecHost.gNodeB1.cellularNic.channelModel[0] inside_building false
par singleMecHost.gNodeB1.cellularNic.channelModel[0] street_wide 20
par singleMecHost.gNodeB1.cellularNic.channelModel[0] ue_height 1.5
par singleMecHost.gNodeB1.cellularNic.channelModel[0] tolerateMaxDistViolation false
par singleMecHost.gNodeB1.cellularNic.channelModel[0] useTorus false
par singleMecHost.gNodeB1.cellularNic.channelModel[0] correlation_distance 50
par singleMecHost.gNodeB1.cellularNic.channelModel[0] targetBler 0.01
par singleMecHost.gNodeB1.cellularNic.channelModel[0] harqReduction 0.2
par singleMecHost.gNodeB1.cellularNic.channelModel[0] lambdaMinTh 0.02
par singleMecHost.gNodeB1.cellularNic.channelModel[0] lambdaMaxTh 0.2
par singleMecHost.gNodeB1.cellularNic.channelModel[0] lambdaRatioTh 20
par singleMecHost.gNodeB1.cellularNic.channelModel[0] antennaGainUe 0
par singleMecHost.gNodeB1.cellularNic.channelModel[0] antennGainEnB 18
par singleMecHost.gNodeB1.cellularNic.channelModel[0] antennGainMicro 5
par singleMecHost.gNodeB1.cellularNic.channelModel[0] thermalNoise -104.5
par singleMecHost.gNodeB1.cellularNic.channelModel[0] ue_noise_figure 7
par singleMecHost.gNodeB1.cellularNic.channelModel[0] bs_noise_figure 5
par singleMecHost.gNodeB1.cellularNic.channelModel[0] cable_loss 2
par singleMecHost.gNodeB1.cellularNic.channelModel[0] dynamic_los false
par singleMecHost.gNodeB1.cellularNic.channelModel[0] fixed_los false
par singleMecHost.gNodeB1.cellularNic.channelModel[0] fading true
par singleMecHost.gNodeB1.cellularNic.channelModel[0] fading_type "\"JAKES\""
par singleMecHost.gNodeB1.cellularNic.channelModel[0] fading_paths 6
par singleMecHost.gNodeB1.cellularNic.channelModel[0] delay_rms 3.63e-07
par singleMecHost.gNodeB1.cellularNic.channelModel[0] bgCell_interference true
par singleMecHost.gNodeB1.cellularNic.channelModel[0] extCell_interference true
par singleMecHost.gNodeB1.cellularNic.channelModel[0] downlink_interference false
par singleMecHost.gNodeB1.cellularNic.channelModel[0] uplink_interference false
par singleMecHost.gNodeB1.cellularNic.channelModel[0] d2d_interference true
par singleMecHost.gNodeB1.cellularNic.channelModel[0] enable_extCell_los true
par singleMecHost.gNodeB1.cellularNic.channelModel[0] useRsrqFromLog false
par singleMecHost.gNodeB1.cellularNic.channelModel[0] rsrqShift 22
par singleMecHost.gNodeB1.cellularNic.channelModel[0] rsrqScale 1
par singleMecHost.gNodeB1.cellularNic.channelModel[0] collectSinrStatistics true
par singleMecHost.gNodeB1.cellularNic.x2Manager typename "\"simu5g.x2.LteX2Manager\""
par singleMecHost.gNodeB1.cellularNic.handoverManager typename "\"simu5g.stack.handoverManager.LteHandoverManager\""
par singleMecHost.gNodeB1.cellularNic.handoverManager losslessHandover false
par singleMecHost.gNodeB1.cellularNic.bgTrafficGenerator[0].manager typename "\"simu5g.stack.backgroundTrafficGenerator.BackgroundTrafficManager\""
par singleMecHost.gNodeB1.cellularNic.bgTrafficGenerator[0] typename "\"simu5g.stack.backgroundTrafficGenerator.BackgroundTrafficGenerator\""
par singleMecHost.gNodeB1.cellularNic.bgTrafficGenerator[0] numBgUes 0
par singleMecHost.gNodeB1.cellularNic.bgTrafficGenerator[0] bgTrafficManagerType "\"BackgroundTrafficManager\""
par singleMecHost.gNodeB1.cellularNic.bgTrafficGenerator[0] enablePeriodicCqiUpdate true
par singleMecHost.gNodeB1.cellularNic.bgTrafficGenerator[0] useProbabilisticCqi false
par singleMecHost.gNodeB1.cellularNic.bgTrafficGenerator[0] computeAvgInterference false
par singleMecHost.gNodeB1.cellularNic.d2dModeSelection typename "\"simu5g.stack.d2dModeSelection.D2DModeSelectionBase\""
par singleMecHost.gNodeB1.cellularNic.d2dModeSelection modeSelectionPeriod 1s
attr unit s
par singleMecHost.gNodeB1.cellularNic typename "\"simu5g.stack.NRNicEnb\""
par singleMecHost.gNodeB1.cellularNic displayStringTextFormat "\"%a (%i)\\n%m\""
par singleMecHost.gNodeB1.cellularNic recordPcap false
par singleMecHost.gNodeB1.cellularNic numPcapRecorders 0
par singleMecHost.gNodeB1.cellularNic isWireless true
par singleMecHost.gNodeB1.cellularNic interfaceTableModule "\"singleMecHost.gNodeB1.interfaceTable\""
par singleMecHost.gNodeB1.cellularNic routingTableModule "\"^.ipv4.routingTable\""
par singleMecHost.gNodeB1.cellularNic LtePdcpRrcType "\"NRPdcpRrcEnb\""
par singleMecHost.gNodeB1.cellularNic LteMacType "\"NRMacGnb\""
par singleMecHost.gNodeB1.cellularNic PacketFlowManagerType "\"NRPacketFlowManagerGnb\""
par singleMecHost.gNodeB1.cellularNic hasRNISupport false
par singleMecHost.gNodeB1.cellularNic LtePhyType "\"LtePhyEnbD2D\""
par singleMecHost.gNodeB1.cellularNic nodeType "\"GNODEB\""
par singleMecHost.gNodeB1.cellularNic processingDelayIn 0s
attr unit s
par singleMecHost.gNodeB1.cellularNic processingDelayOut 0s
attr unit s
par singleMecHost.gNodeB1.cellularNic LteChannelModelType "\"NRChannelModel\""
par singleMecHost.gNodeB1.cellularNic d2dCapable true
par singleMecHost.gNodeB1.cellularNic dualConnectivityEnabled false
par singleMecHost.gNodeB1.cellularNic numCarriers 1
par singleMecHost.gNodeB1.cellularNic address "\"0A-AA-00-00-00-01\""
attr mutable ""
par singleMecHost.gNodeB1.cellularNic compEnabled false
par singleMecHost.gNodeB1.cellularNic LteCompManagerType "\"LteCompManagerProportional\""
par singleMecHost.gNodeB1.cellularNic d2dModeSelectionType "\"D2DModeSelectionBase\""
par singleMecHost.gNodeB1.pppIf.phys$i.channel typename "\"ned.IdealChannel\""
par singleMecHost.gNodeB1.pppIf.ppp.phys$o.channel typename "\"ned.IdealChannel\""
par singleMecHost.gNodeB1.pppIf.ppp.upperLayerOut.channel typename "\"ned.IdealChannel\""
par singleMecHost.gNodeB1.pppIf.upperLayerIn.channel typename "\"ned.IdealChannel\""
par singleMecHost.gNodeB1.pppIf.queue typename "\"inet.queueing.queue.DropTailQueue\""
par singleMecHost.gNodeB1.pppIf.queue displayStringTextFormat "\"contains %p pk (%l) pushed %u\\npulled %o removed %r dropped %d\""
par singleMecHost.gNodeB1.pppIf.queue packetCapacity 10000
par singleMecHost.gNodeB1.pppIf.queue dataCapacity -1b
attr unit b
par singleMecHost.gNodeB1.pppIf.queue dropperClass "\"inet::queueing::PacketAtCollectionEndDropper\""
par singleMecHost.gNodeB1.pppIf.queue comparatorClass "\"\""
par singleMecHost.gNodeB1.pppIf.queue bufferModule "\"\""
par singleMecHost.gNodeB1.pppIf.ppp typename "\"inet.linklayer.ppp.Ppp\""
par singleMecHost.gNodeB1.pppIf.ppp interfaceTableModule "\"singleMecHost.gNodeB1.interfaceTable\""
par singleMecHost.gNodeB1.pppIf.ppp displayStringTextFormat "\"rate: %b\\nsent: %s, rcvd: %r\\nqueue: %q, drop: %d\""
par singleMecHost.gNodeB1.pppIf.ppp sendRawBytes false
par singleMecHost.gNodeB1.pppIf.ppp mtu 4470B
attr unit B
par singleMecHost.gNodeB1.pppIf.ppp stopOperationExtraTime -1s
attr unit s
par singleMecHost.gNodeB1.pppIf.ppp stopOperationTimeout 2s
attr unit s
par singleMecHost.gNodeB1.pppIf typename "\"inet.linklayer.ppp.PppInterface\""
par singleMecHost.gNodeB1.pppIf displayStringTextFormat "\"%a (%i)\\n%m\""
par singleMecHost.gNodeB1.pppIf recordPcap false
par singleMecHost.gNodeB1.pppIf numPcapRecorders 0
par singleMecHost.gNodeB1.pppIf interfaceTableModule "\"singleMecHost.gNodeB1.interfaceTable\""
par singleMecHost.gNodeB1.pppMEHostIf.phys$i.channel typename "\"ned.IdealChannel\""
par singleMecHost.gNodeB1.pppMEHostIf.ppp.phys$o.channel typename "\"ned.IdealChannel\""
par singleMecHost.gNodeB1.pppMEHostIf.ppp.upperLayerOut.channel typename "\"ned.IdealChannel\""
par singleMecHost.gNodeB1.pppMEHostIf.upperLayerIn.channel typename "\"ned.IdealChannel\""
par singleMecHost.gNodeB1.pppMEHostIf.queue typename "\"inet.queueing.queue.DropTailQueue\""
par singleMecHost.gNodeB1.pppMEHostIf.queue displayStringTextFormat "\"contains %p pk (%l) pushed %u\\npulled %o removed %r dropped %d\""
par singleMecHost.gNodeB1.pppMEHostIf.queue packetCapacity 10000
par singleMecHost.gNodeB1.pppMEHostIf.queue dataCapacity -1b
attr unit b
par singleMecHost.gNodeB1.pppMEHostIf.queue dropperClass "\"inet::queueing::PacketAtCollectionEndDropper\""
par singleMecHost.gNodeB1.pppMEHostIf.queue comparatorClass "\"\""
par singleMecHost.gNodeB1.pppMEHostIf.queue bufferModule "\"\""
par singleMecHost.gNodeB1.pppMEHostIf.ppp typename "\"inet.linklayer.ppp.Ppp\""
par singleMecHost.gNodeB1.pppMEHostIf.ppp interfaceTableModule "\"singleMecHost.gNodeB1.interfaceTable\""
par singleMecHost.gNodeB1.pppMEHostIf.ppp displayStringTextFormat "\"rate: %b\\nsent: %s, rcvd: %r\\nqueue: %q, drop: %d\""
par singleMecHost.gNodeB1.pppMEHostIf.ppp sendRawBytes false
par singleMecHost.gNodeB1.pppMEHostIf.ppp mtu 4470B
attr unit B
par singleMecHost.gNodeB1.pppMEHostIf.ppp stopOperationExtraTime -1s
attr unit s
par singleMecHost.gNodeB1.pppMEHostIf.ppp stopOperationTimeout 2s
attr unit s
par singleMecHost.gNodeB1.pppMEHostIf typename "\"inet.linklayer.ppp.PppInterface\""
par singleMecHost.gNodeB1.pppMEHostIf displayStringTextFormat "\"%a (%i)\\n%m\""
par singleMecHost.gNodeB1.pppMEHostIf recordPcap false
par singleMecHost.gNodeB1.pppMEHostIf numPcapRecorders 0
par singleMecHost.gNodeB1.pppMEHostIf interfaceTableModule "\"singleMecHost.gNodeB1.interfaceTable\""
par singleMecHost.gNodeB1.ipv4.transportIn.channel typename "\"ned.IdealChannel\""
par singleMecHost.gNodeB1.ipv4.up.out[0].channel typename "\"ned.IdealChannel\""
par singleMecHost.gNodeB1.ipv4.lp.out[2].channel typename "\"ned.IdealChannel\""
par singleMecHost.gNodeB1.ipv4.ifIn.channel typename "\"ned.IdealChannel\""
par singleMecHost.gNodeB1.ipv4.configurator typename "\"inet.networklayer.configurator.ipv4.Ipv4NodeConfigurator\""
par singleMecHost.gNodeB1.ipv4.configurator interfaceTableModule "\"singleMecHost.gNodeB1.interfaceTable\""
par singleMecHost.gNodeB1.ipv4.configurator routingTableModule "\"singleMecHost.gNodeB1.ipv4.routingTable\""
par singleMecHost.gNodeB1.ipv4.configurator networkConfiguratorModule "\"configurator\""
par singleMecHost.gNodeB1.ipv4.configurator configureRoutingTable true
par singleMecHost.gNodeB1.ipv4.routingTable typename "\"inet.networklayer.ipv4.Ipv4RoutingTable\""
par singleMecHost.gNodeB1.ipv4.routingTable interfaceTableModule "\"singleMecHost.gNodeB1.interfaceTable\""
par singleMecHost.gNodeB1.ipv4.routingTable routerId "\"auto\""
par singleMecHost.gNodeB1.ipv4.routingTable netmaskRoutes "\"*\""
par singleMecHost.gNodeB1.ipv4.routingTable forwarding true
par singleMecHost.gNodeB1.ipv4.routingTable multicastForwarding false
par singleMecHost.gNodeB1.ipv4.routingTable useAdminDist false
par singleMecHost.gNodeB1.ipv4.routingTable routingFile "\"\""
par singleMecHost.gNodeB1.ipv4.natTable typename "\"inet.networklayer.ipv4.Ipv4NatTable\""
par singleMecHost.gNodeB1.ipv4.natTable networkProtocolModule "\"^.ip\""
par singleMecHost.gNodeB1.ipv4.natTable config "<config/> at content:1"
par singleMecHost.gNodeB1.ipv4.up typename "\"inet.common.MessageDispatcher\""
par singleMecHost.gNodeB1.ipv4.up displayStringTextFormat "\"processed %p pk (%l)\""
par singleMecHost.gNodeB1.ipv4.up forwardServiceRegistration true
par singleMecHost.gNodeB1.ipv4.up forwardProtocolRegistration true
par singleMecHost.gNodeB1.ipv4.igmp typename "\"inet.networklayer.ipv4.Igmpv2\""
par singleMecHost.gNodeB1.ipv4.igmp interfaceTableModule "\"singleMecHost.gNodeB1.interfaceTable\""
par singleMecHost.gNodeB1.ipv4.igmp routingTableModule "\"singleMecHost.gNodeB1.ipv4.routingTable\""
par singleMecHost.gNodeB1.ipv4.igmp crcMode "\"declared\""
attr enum declared,computed
par singleMecHost.gNodeB1.ipv4.igmp enabled true
par singleMecHost.gNodeB1.ipv4.igmp robustnessVariable 2
par singleMecHost.gNodeB1.ipv4.igmp queryInterval 125s
attr unit s
par singleMecHost.gNodeB1.ipv4.igmp queryResponseInterval 10s
attr unit s
par singleMecHost.gNodeB1.ipv4.igmp groupMembershipInterval 260s
attr unit s
par singleMecHost.gNodeB1.ipv4.igmp otherQuerierPresentInterval 255s
attr unit s
par singleMecHost.gNodeB1.ipv4.igmp startupQueryInterval 31.25s
attr unit s
par singleMecHost.gNodeB1.ipv4.igmp startupQueryCount 2
par singleMecHost.gNodeB1.ipv4.igmp lastMemberQueryInterval 1s
attr unit s
par singleMecHost.gNodeB1.ipv4.igmp lastMemberQueryCount 2
par singleMecHost.gNodeB1.ipv4.igmp unsolicitedReportInterval 10s
attr unit s
par singleMecHost.gNodeB1.ipv4.icmp typename "\"inet.networklayer.ipv4.Icmp\""
par singleMecHost.gNodeB1.ipv4.icmp interfaceTableModule "\"singleMecHost.gNodeB1.interfaceTable\""
par singleMecHost.gNodeB1.ipv4.icmp routingTableModule "\"singleMecHost.gNodeB1.ipv4.routingTable\""
par singleMecHost.gNodeB1.ipv4.icmp crcMode "\"declared\""
attr enum declared,computed
attr mutable ""
par singleMecHost.gNodeB1.ipv4.icmp quoteLength 8B
attr mutable ""
attr unit B
par singleMecHost.gNodeB1.ipv4.mp typename "\"inet.common.MessageDispatcher\""
par singleMecHost.gNodeB1.ipv4.mp displayStringTextFormat "\"processed %p pk (%l)\""
par singleMecHost.gNodeB1.ipv4.mp forwardServiceRegistration true
par singleMecHost.gNodeB1.ipv4.mp forwardProtocolRegistration true
par singleMecHost.gNodeB1.ipv4.ip typename "\"inet.networklayer.ipv4.Ipv4\""
par singleMecHost.gNodeB1.ipv4.ip interfaceTableModule "\"singleMecHost.gNodeB1.interfaceTable\""
par singleMecHost.gNodeB1.ipv4.ip routingTableModule "\"singleMecHost.gNodeB1.ipv4.routingTable\""
par singleMecHost.gNodeB1.ipv4.ip arpModule "\"singleMecHost.gNodeB1.ipv4.arp\""
par singleMecHost.gNodeB1.ipv4.ip icmpModule "\"singleMecHost.gNodeB1.ipv4.icmp\""
par singleMecHost.gNodeB1.ipv4.ip crcMode "\"declared\""
attr enum declared,computed
par singleMecHost.gNodeB1.ipv4.ip timeToLive 32
par singleMecHost.gNodeB1.ipv4.ip multicastTimeToLive 32
par singleMecHost.gNodeB1.ipv4.ip fragmentTimeout 60s
attr unit s
par singleMecHost.gNodeB1.ipv4.ip limitedBroadcast false
par singleMecHost.gNodeB1.ipv4.ip directBroadcastInterfaces "\"\""
par singleMecHost.gNodeB1.ipv4.arp typename "\"inet.networklayer.arp.ipv4.Arp\""
par singleMecHost.gNodeB1.ipv4.arp interfaceTableModule "\"singleMecHost.gNodeB1.interfaceTable\""
par singleMecHost.gNodeB1.ipv4.arp routingTableModule "\"singleMecHost.gNodeB1.ipv4.routingTable\""
par singleMecHost.gNodeB1.ipv4.arp retryTimeout 1s
attr unit s
par singleMecHost.gNodeB1.ipv4.arp retryCount 3
par singleMecHost.gNodeB1.ipv4.arp cacheTimeout 120s
attr unit s
par singleMecHost.gNodeB1.ipv4.arp proxyArpInterfaces "\"*\""
par singleMecHost.gNodeB1.ipv4.lp typename "\"inet.common.MessageDispatcher\""
par singleMecHost.gNodeB1.ipv4.lp displayStringTextFormat "\"processed %p pk (%l)\""
par singleMecHost.gNodeB1.ipv4.lp forwardServiceRegistration true
par singleMecHost.gNodeB1.ipv4.lp forwardProtocolRegistration true
par singleMecHost.gNodeB1.ipv4 typename "\"inet.networklayer.ipv4.Ipv4NetworkLayer\""
par singleMecHost.gNodeB1.ipv4 forwarding true
par singleMecHost.gNodeB1.ipv4 multicastForwarding false
par singleMecHost.gNodeB1.ipv4 interfaceTableModule "\"singleMecHost.gNodeB1.interfaceTable\""
par singleMecHost.gNodeB1.ipv4 displayStringTextFormat "\"%i\""
par singleMecHost.gNodeB1.udp typename "\"inet.transportlayer.udp.Udp\""
par singleMecHost.gNodeB1.udp interfaceTableModule "\"singleMecHost.gNodeB1.interfaceTable\""
par singleMecHost.gNodeB1.udp icmpModule "\"^.ipv4.icmp\""
par singleMecHost.gNodeB1.udp icmpv6Module "\"^.ipv6.icmpv6\""
par singleMecHost.gNodeB1.udp crcMode "\"declared\""
attr enum disabled,declared,computed
par singleMecHost.gNodeB1.udp defaultMulticastLoop true
par singleMecHost.gNodeB1.tcp typename "\"inet.transportlayer.tcp.Tcp\""
par singleMecHost.gNodeB1.tcp crcMode "\"declared\""
attr enum declared,computed
par singleMecHost.gNodeB1.tcp advertisedWindow 65535
par singleMecHost.gNodeB1.tcp delayedAcksEnabled false
par singleMecHost.gNodeB1.tcp nagleEnabled true
par singleMecHost.gNodeB1.tcp limitedTransmitEnabled false
par singleMecHost.gNodeB1.tcp increasedIWEnabled false
par singleMecHost.gNodeB1.tcp sackSupport true
par singleMecHost.gNodeB1.tcp windowScalingSupport false
par singleMecHost.gNodeB1.tcp windowScalingFactor -1
par singleMecHost.gNodeB1.tcp timestampSupport false
par singleMecHost.gNodeB1.tcp mss 536
par singleMecHost.gNodeB1.tcp msl 120s
attr unit s
par singleMecHost.gNodeB1.tcp tcpAlgorithmClass "\"TcpReno\""
attr enum TcpVegas,TcpWestwood,TcpNewReno,TcpReno,TcpTahoe,TcpNoCongestionControl
par singleMecHost.gNodeB1.tcp useDataNotification false
par singleMecHost.gNodeB1.tcp dupthresh 3
par singleMecHost.gNodeB1.tcp initialSsthresh 4294967295
par singleMecHost.gNodeB1.tcp stopOperationExtraTime 0s
attr unit s
par singleMecHost.gNodeB1.tcp stopOperationTimeout 2s
attr unit s
par singleMecHost.gNodeB1.tcp ecnWillingness false
par singleMecHost.gNodeB1.tcp dctcpGamma 0.0625
par singleMecHost.gNodeB1.sctp typename "\"inet.transportlayer.sctp.Sctp\""
par singleMecHost.gNodeB1.sctp interfaceTableModule "\"singleMecHost.gNodeB1.interfaceTable\""
par singleMecHost.gNodeB1.sctp routingTableModule "\"^.ipv4.routingTable\""
par singleMecHost.gNodeB1.sctp crcMode "\"declared\""
attr enum declared,computed
par singleMecHost.gNodeB1.sctp numGapReports 3
par singleMecHost.gNodeB1.sctp rtoInitial 3s
attr unit s
par singleMecHost.gNodeB1.sctp rtoMin 1s
attr unit s
par singleMecHost.gNodeB1.sctp rtoMax 60s
attr unit s
par singleMecHost.gNodeB1.sctp rtoAlpha 0.125
par singleMecHost.gNodeB1.sctp rtoBeta 0.25
par singleMecHost.gNodeB1.sctp maxBurst 4
par singleMecHost.gNodeB1.sctp maxBurstVariant "\"maxBurst\""
par singleMecHost.gNodeB1.sctp initialWindow 0
par singleMecHost.gNodeB1.sctp assocMaxRetrans 10
par singleMecHost.gNodeB1.sctp pathMaxRetrans 5
par singleMecHost.gNodeB1.sctp maxInitRetrans 8
par singleMecHost.gNodeB1.sctp sackPeriod 0.2s
attr unit s
par singleMecHost.gNodeB1.sctp sackFrequency 2
par singleMecHost.gNodeB1.sctp reactivatePrimaryPath false
par singleMecHost.gNodeB1.sctp sendQueueLimit 0
par singleMecHost.gNodeB1.sctp validCookieLifetime 10s
attr unit s
par singleMecHost.gNodeB1.sctp enableHeartbeats true
par singleMecHost.gNodeB1.sctp hbInterval 30s
attr unit s
par singleMecHost.gNodeB1.sctp sendHeartbeatsOnActivePaths false
par singleMecHost.gNodeB1.sctp nagleEnabled true
par singleMecHost.gNodeB1.sctp naglePoint 1468
par singleMecHost.gNodeB1.sctp fragPoint 1452
par singleMecHost.gNodeB1.sctp fastRecoverySupported true
par singleMecHost.gNodeB1.sctp sctpAlgorithmClass "\"SctpAlg\""
par singleMecHost.gNodeB1.sctp ccModule 0
par singleMecHost.gNodeB1.sctp osbWithHeader false
par singleMecHost.gNodeB1.sctp RTXMethod 0
par singleMecHost.gNodeB1.sctp ssModule 0
par singleMecHost.gNodeB1.sctp arwnd 65535
par singleMecHost.gNodeB1.sctp swsLimit 3000
par singleMecHost.gNodeB1.sctp udpEncapsEnabled false
[...]
par singleMecHost.mecHost.upf_mec.ipv4.arp typename "\"inet.networklayer.arp.ipv4.Arp\""
par singleMecHost.mecHost.upf_mec.ipv4.arp interfaceTableModule "\"singleMecHost.mecHost.upf_mec.interfaceTable\""
par singleMecHost.mecHost.upf_mec.ipv4.arp routingTableModule "\"singleMecHost.mecHost.upf_mec.ipv4.routingTable\""
par singleMecHost.mecHost.upf_mec.ipv4.arp retryTimeout 1s
attr unit s
par singleMecHost.mecHost.upf_mec.ipv4.arp retryCount 3
par singleMecHost.mecHost.upf_mec.ipv4.arp cacheTimeout 120s
attr unit s
par singleMecHost.mecHost.upf_mec.ipv4.arp proxyArpInterfaces "\"*\""
par singleMecHost.mecHost.upf_mec.ipv4.lp typename "\"inet.common.MessageDispatcher\""
par singleMecHost.mecHost.upf_mec.ipv4.lp displayStringTextFormat "\"processed %p pk (%l)\""
par singleMecHost.mecHost.upf_mec.ipv4.lp forwardServiceRegistration true
par singleMecHost.mecHost.upf_mec.ipv4.lp forwardProtocolRegistration true
par singleMecHost.mecHost.upf_mec.ipv4 typename "\"inet.networklayer.ipv4.Ipv4NetworkLayer\""
par singleMecHost.mecHost.upf_mec.ipv4 forwarding true
par singleMecHost.mecHost.upf_mec.ipv4 multicastForwarding false
par singleMecHost.mecHost.upf_mec.ipv4 interfaceTableModule "\"singleMecHost.mecHost.upf_mec.interfaceTable\""
par singleMecHost.mecHost.upf_mec.ipv4 displayStringTextFormat "\"%i\""
par singleMecHost.mecHost.upf_mec.nl typename "\"inet.common.MessageDispatcher\""
par singleMecHost.mecHost.upf_mec.nl displayStringTextFormat "\"processed %p pk (%l)\""
par singleMecHost.mecHost.upf_mec.nl forwardServiceRegistration true
par singleMecHost.mecHost.upf_mec.nl forwardProtocolRegistration true
par singleMecHost.mecHost.upf_mec.pppIf.phys$i.channel typename "\"ned.IdealChannel\""
par singleMecHost.mecHost.upf_mec.pppIf.ppp.phys$o.channel typename "\"ned.IdealChannel\""
par singleMecHost.mecHost.upf_mec.pppIf.ppp.upperLayerOut.channel typename "\"ned.IdealChannel\""
par singleMecHost.mecHost.upf_mec.pppIf.upperLayerIn.channel typename "\"ned.IdealChannel\""
par singleMecHost.mecHost.upf_mec.pppIf.queue typename "\"inet.queueing.queue.DropTailQueue\""
par singleMecHost.mecHost.upf_mec.pppIf.queue displayStringTextFormat "\"contains %p pk (%l) pushed %u\\npulled %o removed %r dropped %d\""
par singleMecHost.mecHost.upf_mec.pppIf.queue packetCapacity 10000
par singleMecHost.mecHost.upf_mec.pppIf.queue dataCapacity -1b
attr unit b
par singleMecHost.mecHost.upf_mec.pppIf.queue dropperClass "\"inet::queueing::PacketAtCollectionEndDropper\""
par singleMecHost.mecHost.upf_mec.pppIf.queue comparatorClass "\"\""
par singleMecHost.mecHost.upf_mec.pppIf.queue bufferModule "\"\""
par singleMecHost.mecHost.upf_mec.pppIf.ppp typename "\"inet.linklayer.ppp.Ppp\""
par singleMecHost.mecHost.upf_mec.pppIf.ppp interfaceTableModule "\"singleMecHost.mecHost.upf_mec.interfaceTable\""
par singleMecHost.mecHost.upf_mec.pppIf.ppp displayStringTextFormat "\"rate: %b\\nsent: %s, rcvd: %r\\nqueue: %q, drop: %d\""
par singleMecHost.mecHost.upf_mec.pppIf.ppp sendRawBytes false
par singleMecHost.mecHost.upf_mec.pppIf.ppp mtu 4470B
attr unit B
par singleMecHost.mecHost.upf_mec.pppIf.ppp stopOperationExtraTime -1s
attr unit s
par singleMecHost.mecHost.upf_mec.pppIf.ppp stopOperationTimeout 2s
attr unit s
par singleMecHost.mecHost.upf_mec.pppIf typename "\"inet.linklayer.ppp.PppInterface\""
par singleMecHost.mecHost.upf_mec.pppIf displayStringTextFormat "\"%a (%i)\\n%m\""
par singleMecHost.mecHost.upf_mec.pppIf recordPcap false
par singleMecHost.mecHost.upf_mec.pppIf numPcapRecorders 0
par singleMecHost.mecHost.upf_mec.pppIf interfaceTableModule "\"singleMecHost.mecHost.upf_mec.interfaceTable\""
par singleMecHost.mecHost.upf_mec.udp typename "\"inet.transportlayer.udp.Udp\""
par singleMecHost.mecHost.upf_mec.udp interfaceTableModule "\"singleMecHost.mecHost.upf_mec.interfaceTable\""
par singleMecHost.mecHost.upf_mec.udp icmpModule "\"^.ipv4.icmp\""
par singleMecHost.mecHost.upf_mec.udp icmpv6Module "\"^.ipv6.icmpv6\""
par singleMecHost.mecHost.upf_mec.udp crcMode "\"declared\""
attr enum disabled,declared,computed
par singleMecHost.mecHost.upf_mec.udp defaultMulticastLoop true
par singleMecHost.mecHost.upf_mec.trafficFlowFilter typename "\"simu5g.corenetwork.trafficFlowFilter.TrafficFlowFilter\""
par singleMecHost.mecHost.upf_mec.trafficFlowFilter ownerType "\"UPF_MEC\""
par singleMecHost.mecHost.upf_mec.trafficFlowFilter fastForwarding true
par singleMecHost.mecHost.upf_mec.gtp_user typename "\"simu5g.corenetwork.gtp.GtpUser\""
par singleMecHost.mecHost.upf_mec.gtp_user interfaceTableModule "\"singleMecHost.mecHost.upf_mec.interfaceTable\""
par singleMecHost.mecHost.upf_mec.gtp_user ipOutInterface "\"\""
par singleMecHost.mecHost.upf_mec.gtp_user localPort 31
par singleMecHost.mecHost.upf_mec.gtp_user tunnelPeerPort 31
par singleMecHost.mecHost.upf_mec.gtp_user filter true
par singleMecHost.mecHost.upf_mec.tn typename "\"inet.common.MessageDispatcher\""
par singleMecHost.mecHost.upf_mec.tn displayStringTextFormat "\"processed %p pk (%l)\""
par singleMecHost.mecHost.upf_mec.tn forwardServiceRegistration true
par singleMecHost.mecHost.upf_mec.tn forwardProtocolRegistration true
par singleMecHost.mecHost.upf_mec.at typename "\"inet.common.MessageDispatcher\""
par singleMecHost.mecHost.upf_mec.at displayStringTextFormat "\"processed %p pk (%l)\""
par singleMecHost.mecHost.upf_mec.at forwardServiceRegistration true
par singleMecHost.mecHost.upf_mec.at forwardProtocolRegistration true
par singleMecHost.mecHost.upf_mec typename "\"simu5g.nodes.Upf\""
par singleMecHost.mecHost.upf_mec hasStatus false
par singleMecHost.mecHost.upf_mec osgModel "\"\""
par singleMecHost.mecHost.upf_mec osgModelColor "\"\""
par singleMecHost.mecHost.upf_mec canvasImage "\"\""
par singleMecHost.mecHost.upf_mec canvasImageColor "\"\""
par singleMecHost.mecHost.upf_mec recordPcap false
par singleMecHost.mecHost.upf_mec numPcapRecorders 0
par singleMecHost.mecHost.upf_mec numLoInterfaces 1
par singleMecHost.mecHost.upf_mec numWlanInterfaces 0
par singleMecHost.mecHost.upf_mec numEthInterfaces 0
par singleMecHost.mecHost.upf_mec numPppInterfaces 0
par singleMecHost.mecHost.upf_mec numTunInterfaces 0
par singleMecHost.mecHost.upf_mec numVirtInterfaces 0
par singleMecHost.mecHost.upf_mec fcsMode "\"declared\""
attr enum declared,computed
par singleMecHost.mecHost.upf_mec hasIpv4 true
par singleMecHost.mecHost.upf_mec hasIpv6 false
par singleMecHost.mecHost.upf_mec hasGn false
par singleMecHost.mecHost.upf_mec forwarding true
par singleMecHost.mecHost.upf_mec multicastForwarding false
par singleMecHost.mecHost.upf_mec nodeType "\"UPF_MEC\""
par singleMecHost.mecHost typename "\"simu5g.nodes.mec.MECHost\""
par singleMecHost.mecHost nodeType "\"MECHost\""
par singleMecHost.mecHost gateway "\"upf\""
par singleMecHost.mecHost maxMECApps 100
par singleMecHost.mecHost maxRam 3.2e+10B
attr unit B
par singleMecHost.mecHost maxDisk 1e+14B
attr unit B
par singleMecHost.mecHost maxCpuSpeed 400000
par singleMecHost.mecHost numBGMecApp 0
par singleMecHost.mecHost numIndependentMecApp 0
par singleMecHost.mecHost bsList "\"gNodeB1\""
par singleMecHost.mecOrchestrator typename "\"simu5g.nodes.mec.MECOrchestrator.MecOrchestrator\""
par singleMecHost.mecOrchestrator selectionPolicy "\"MecServiceBased\""
par singleMecHost.mecOrchestrator mecHostIndex 0
par singleMecHost.mecOrchestrator mecHostList "\"mecHost\""
par singleMecHost.mecOrchestrator mecApplicationPackageList "\"\""
par singleMecHost.mecOrchestrator onboardingTime 0.05s
attr unit s
par singleMecHost.mecOrchestrator instantiationTime 0.05s
attr unit s
par singleMecHost.mecOrchestrator terminationTime 0.05s
attr unit s
par singleMecHost.ualcmp.interfaceTable typename "\"inet.networklayer.common.InterfaceTable\""
par singleMecHost.ualcmp.interfaceTable displayAddresses false
par singleMecHost.ualcmp.pppIf.phys$i.channel typename "\"ned.IdealChannel\""
par singleMecHost.ualcmp.pppIf.ppp.phys$o.channel typename "\"ned.IdealChannel\""
par singleMecHost.ualcmp.pppIf.ppp.upperLayerOut.channel typename "\"ned.IdealChannel\""
par singleMecHost.ualcmp.pppIf.upperLayerIn.channel typename "\"ned.IdealChannel\""
par singleMecHost.ualcmp.pppIf.queue typename "\"inet.queueing.queue.DropTailQueue\""
par singleMecHost.ualcmp.pppIf.queue displayStringTextFormat "\"contains %p pk (%l) pushed %u\\npulled %o removed %r dropped %d\""
par singleMecHost.ualcmp.pppIf.queue packetCapacity 10000
par singleMecHost.ualcmp.pppIf.queue dataCapacity -1b
attr unit b
par singleMecHost.ualcmp.pppIf.queue dropperClass "\"inet::queueing::PacketAtCollectionEndDropper\""
par singleMecHost.ualcmp.pppIf.queue comparatorClass "\"\""
par singleMecHost.ualcmp.pppIf.queue bufferModule "\"\""
par singleMecHost.ualcmp.pppIf.ppp typename "\"inet.linklayer.ppp.Ppp\""
par singleMecHost.ualcmp.pppIf.ppp interfaceTableModule "\"singleMecHost.ualcmp.interfaceTable\""
par singleMecHost.ualcmp.pppIf.ppp displayStringTextFormat "\"rate: %b\\nsent: %s, rcvd: %r\\nqueue: %q, drop: %d\""
par singleMecHost.ualcmp.pppIf.ppp sendRawBytes false
par singleMecHost.ualcmp.pppIf.ppp mtu 4470B
attr unit B
par singleMecHost.ualcmp.pppIf.ppp stopOperationExtraTime -1s
attr unit s
par singleMecHost.ualcmp.pppIf.ppp stopOperationTimeout 2s
attr unit s
par singleMecHost.ualcmp.pppIf typename "\"inet.linklayer.ppp.PppInterface\""
par singleMecHost.ualcmp.pppIf displayStringTextFormat "\"%a (%i)\\n%m\""
par singleMecHost.ualcmp.pppIf recordPcap false
par singleMecHost.ualcmp.pppIf numPcapRecorders 0
par singleMecHost.ualcmp.pppIf interfaceTableModule "\"singleMecHost.ualcmp.interfaceTable\""
par singleMecHost.ualcmp.ipv4.transportIn.channel typename "\"ned.IdealChannel\""
par singleMecHost.ualcmp.ipv4.up.out[0].channel typename "\"ned.IdealChannel\""
par singleMecHost.ualcmp.ipv4.lp.out[2].channel typename "\"ned.IdealChannel\""
par singleMecHost.ualcmp.ipv4.ifIn.channel typename "\"ned.IdealChannel\""
par singleMecHost.ualcmp.ipv4.configurator typename "\"inet.networklayer.configurator.ipv4.Ipv4NodeConfigurator\""
par singleMecHost.ualcmp.ipv4.configurator interfaceTableModule "\"singleMecHost.ualcmp.interfaceTable\""
par singleMecHost.ualcmp.ipv4.configurator routingTableModule "\"singleMecHost.ualcmp.ipv4.routingTable\""
par singleMecHost.ualcmp.ipv4.configurator networkConfiguratorModule "\"configurator\""
par singleMecHost.ualcmp.ipv4.configurator configureRoutingTable true
par singleMecHost.ualcmp.ipv4.routingTable typename "\"inet.networklayer.ipv4.Ipv4RoutingTable\""
par singleMecHost.ualcmp.ipv4.routingTable interfaceTableModule "\"singleMecHost.ualcmp.interfaceTable\""
par singleMecHost.ualcmp.ipv4.routingTable routerId "\"auto\""
par singleMecHost.ualcmp.ipv4.routingTable netmaskRoutes "\"*\""
par singleMecHost.ualcmp.ipv4.routingTable forwarding false
par singleMecHost.ualcmp.ipv4.routingTable multicastForwarding false
par singleMecHost.ualcmp.ipv4.routingTable useAdminDist false
par singleMecHost.ualcmp.ipv4.routingTable routingFile "\"\""
par singleMecHost.ualcmp.ipv4.natTable typename "\"inet.networklayer.ipv4.Ipv4NatTable\""
par singleMecHost.ualcmp.ipv4.natTable networkProtocolModule "\"^.ip\""
par singleMecHost.ualcmp.ipv4.natTable config "<config/> at content:1"
par singleMecHost.ualcmp.ipv4.up typename "\"inet.common.MessageDispatcher\""
par singleMecHost.ualcmp.ipv4.up displayStringTextFormat "\"processed %p pk (%l)\""
par singleMecHost.ualcmp.ipv4.up forwardServiceRegistration true
par singleMecHost.ualcmp.ipv4.up forwardProtocolRegistration true
par singleMecHost.ualcmp.ipv4.igmp typename "\"inet.networklayer.ipv4.Igmpv2\""
par singleMecHost.ualcmp.ipv4.igmp interfaceTableModule "\"singleMecHost.ualcmp.interfaceTable\""
par singleMecHost.ualcmp.ipv4.igmp routingTableModule "\"singleMecHost.ualcmp.ipv4.routingTable\""
par singleMecHost.ualcmp.ipv4.igmp crcMode "\"declared\""
attr enum declared,computed
par singleMecHost.ualcmp.ipv4.igmp enabled true
par singleMecHost.ualcmp.ipv4.igmp robustnessVariable 2
par singleMecHost.ualcmp.ipv4.igmp queryInterval 125s
attr unit s
par singleMecHost.ualcmp.ipv4.igmp queryResponseInterval 10s
attr unit s
par singleMecHost.ualcmp.ipv4.igmp groupMembershipInterval 260s
attr unit s
par singleMecHost.ualcmp.ipv4.igmp otherQuerierPresentInterval 255s
attr unit s
par singleMecHost.ualcmp.ipv4.igmp startupQueryInterval 31.25s
attr unit s
par singleMecHost.ualcmp.ipv4.igmp startupQueryCount 2
par singleMecHost.ualcmp.ipv4.igmp lastMemberQueryInterval 1s
attr unit s
par singleMecHost.ualcmp.ipv4.igmp lastMemberQueryCount 2
par singleMecHost.ualcmp.ipv4.igmp unsolicitedReportInterval 10s
attr unit s
par singleMecHost.ualcmp.ipv4.icmp typename "\"inet.networklayer.ipv4.Icmp\""
par singleMecHost.ualcmp.ipv4.icmp interfaceTableModule "\"singleMecHost.ualcmp.interfaceTable\""
par singleMecHost.ualcmp.ipv4.icmp routingTableModule "\"singleMecHost.ualcmp.ipv4.routingTable\""
par singleMecHost.ualcmp.ipv4.icmp crcMode "\"declared\""
attr enum declared,computed
attr mutable ""
par singleMecHost.ualcmp.ipv4.icmp quoteLength 8B
attr mutable ""
attr unit B
par singleMecHost.ualcmp.ipv4.mp typename "\"inet.common.MessageDispatcher\""
par singleMecHost.ualcmp.ipv4.mp displayStringTextFormat "\"processed %p pk (%l)\""
par singleMecHost.ualcmp.ipv4.mp forwardServiceRegistration true
par singleMecHost.ualcmp.ipv4.mp forwardProtocolRegistration true
par singleMecHost.ualcmp.ipv4.ip typename "\"inet.networklayer.ipv4.Ipv4\""
par singleMecHost.ualcmp.ipv4.ip interfaceTableModule "\"singleMecHost.ualcmp.interfaceTable\""
par singleMecHost.ualcmp.ipv4.ip routingTableModule "\"singleMecHost.ualcmp.ipv4.routingTable\""
par singleMecHost.ualcmp.ipv4.ip arpModule "\"singleMecHost.ualcmp.ipv4.arp\""
par singleMecHost.ualcmp.ipv4.ip icmpModule "\"singleMecHost.ualcmp.ipv4.icmp\""
par singleMecHost.ualcmp.ipv4.ip crcMode "\"declared\""
attr enum declared,computed
par singleMecHost.ualcmp.ipv4.ip timeToLive 32
par singleMecHost.ualcmp.ipv4.ip multicastTimeToLive 32
par singleMecHost.ualcmp.ipv4.ip fragmentTimeout 60s
attr unit s
par singleMecHost.ualcmp.ipv4.ip limitedBroadcast false
par singleMecHost.ualcmp.ipv4.ip directBroadcastInterfaces "\"\""
par singleMecHost.ualcmp.ipv4.arp typename "\"inet.networklayer.arp.ipv4.Arp\""
par singleMecHost.ualcmp.ipv4.arp interfaceTableModule "\"singleMecHost.ualcmp.interfaceTable\""
par singleMecHost.ualcmp.ipv4.arp routingTableModule "\"singleMecHost.ualcmp.ipv4.routingTable\""
par singleMecHost.ualcmp.ipv4.arp retryTimeout 1s
attr unit s
par singleMecHost.ualcmp.ipv4.arp retryCount 3
par singleMecHost.ualcmp.ipv4.arp cacheTimeout 120s
attr unit s
par singleMecHost.ualcmp.ipv4.arp proxyArpInterfaces "\"*\""
par singleMecHost.ualcmp.ipv4.lp typename "\"inet.common.MessageDispatcher\""
par singleMecHost.ualcmp.ipv4.lp displayStringTextFormat "\"processed %p pk (%l)\""
par singleMecHost.ualcmp.ipv4.lp forwardServiceRegistration true
par singleMecHost.ualcmp.ipv4.lp forwardProtocolRegistration true
par singleMecHost.ualcmp.ipv4 typename "\"inet.networklayer.ipv4.Ipv4NetworkLayer\""
par singleMecHost.ualcmp.ipv4 forwarding false
par singleMecHost.ualcmp.ipv4 multicastForwarding false
par singleMecHost.ualcmp.ipv4 interfaceTableModule "\"singleMecHost.ualcmp.interfaceTable\""
par singleMecHost.ualcmp.ipv4 displayStringTextFormat "\"%i\""
par singleMecHost.ualcmp.ualcmpApp.thread_37 typename "\"simu5g.nodes.mec.MECPlatform.MECServices.MECServiceBase.SocketManager\""
par singleMecHost.ualcmp.ualcmpApp.thread_38 typename "\"simu5g.nodes.mec.MECPlatform.MECServices.MECServiceBase.SocketManager\""
par singleMecHost.ualcmp.ualcmpApp.thread_39 typename "\"simu5g.nodes.mec.MECPlatform.MECServices.MECServiceBase.SocketManager\""
par singleMecHost.ualcmp.ualcmpApp typename "\"simu5g.nodes.mec.UALCMP.UALCMPApp\""
par singleMecHost.ualcmp.ualcmpApp serviceName "\"UALCMP\""
par singleMecHost.ualcmp.ualcmpApp requestQueueSize 0
par singleMecHost.ualcmp.ualcmpApp subscriptionQueueSize 0
par singleMecHost.ualcmp.ualcmpApp localAddress "\"\""
par singleMecHost.ualcmp.ualcmpApp localPort 1000
par singleMecHost.ualcmp.ualcmpApp dataTransferMode "\"bytestream\""
attr enum bytecount,object,bytestream
par singleMecHost.ualcmp.ualcmpApp requestServiceTime 5e-06s
attr unit s
par singleMecHost.ualcmp.ualcmpApp subscriptionServiceTime 1e-05s
attr unit s
par singleMecHost.ualcmp.ualcmpApp serverThreadClass "\"simu5g.nodes.mec.MECPlatform.MECServices.MECServiceBase.SocketManager\""
par singleMecHost.ualcmp.ualcmpApp destPort 4000
par singleMecHost.ualcmp.ualcmpApp tos -1
par singleMecHost.ualcmp.udp typename "\"inet.transportlayer.udp.Udp\""
par singleMecHost.ualcmp.udp interfaceTableModule "\"singleMecHost.ualcmp.interfaceTable\""
par singleMecHost.ualcmp.udp icmpModule "\"^.ipv4.icmp\""
par singleMecHost.ualcmp.udp icmpv6Module "\"^.ipv6.icmpv6\""
par singleMecHost.ualcmp.udp crcMode "\"declared\""
attr enum disabled,declared,computed
par singleMecHost.ualcmp.udp defaultMulticastLoop true
par singleMecHost.ualcmp.tcp.conn-17 typename "\"inet.transportlayer.tcp.TcpConnection\""
par singleMecHost.ualcmp.tcp.conn-37 typename "\"inet.transportlayer.tcp.TcpConnection\""
par singleMecHost.ualcmp.tcp.conn-38 typename "\"inet.transportlayer.tcp.TcpConnection\""
par singleMecHost.ualcmp.tcp.conn-39 typename "\"inet.transportlayer.tcp.TcpConnection\""
par singleMecHost.ualcmp.tcp typename "\"inet.transportlayer.tcp.Tcp\""
par singleMecHost.ualcmp.tcp crcMode "\"declared\""
attr enum declared,computed
par singleMecHost.ualcmp.tcp advertisedWindow 65535
par singleMecHost.ualcmp.tcp delayedAcksEnabled false
par singleMecHost.ualcmp.tcp nagleEnabled true
par singleMecHost.ualcmp.tcp limitedTransmitEnabled false
par singleMecHost.ualcmp.tcp increasedIWEnabled false
par singleMecHost.ualcmp.tcp sackSupport true
par singleMecHost.ualcmp.tcp windowScalingSupport false
par singleMecHost.ualcmp.tcp windowScalingFactor -1
par singleMecHost.ualcmp.tcp timestampSupport false
par singleMecHost.ualcmp.tcp mss 536
par singleMecHost.ualcmp.tcp msl 120s
attr unit s
par singleMecHost.ualcmp.tcp tcpAlgorithmClass "\"TcpReno\""
attr enum TcpVegas,TcpWestwood,TcpNewReno,TcpReno,TcpTahoe,TcpNoCongestionControl
par singleMecHost.ualcmp.tcp useDataNotification false
par singleMecHost.ualcmp.tcp dupthresh 3
par singleMecHost.ualcmp.tcp initialSsthresh 4294967295
par singleMecHost.ualcmp.tcp stopOperationExtraTime 0s
attr unit s
par singleMecHost.ualcmp.tcp stopOperationTimeout 2s
attr unit s
par singleMecHost.ualcmp.tcp ecnWillingness false
par singleMecHost.ualcmp.tcp dctcpGamma 0.0625
par singleMecHost.ualcmp.at typename "\"inet.common.MessageDispatcher\""
par singleMecHost.ualcmp.at displayStringTextFormat "\"processed %p pk (%l)\""
par singleMecHost.ualcmp.at forwardServiceRegistration true
par singleMecHost.ualcmp.at forwardProtocolRegistration true
par singleMecHost.ualcmp.tn typename "\"inet.common.MessageDispatcher\""
par singleMecHost.ualcmp.tn displayStringTextFormat "\"processed %p pk (%l)\""
par singleMecHost.ualcmp.tn forwardServiceRegistration true
par singleMecHost.ualcmp.tn forwardProtocolRegistration true
par singleMecHost.ualcmp.nl typename "\"inet.common.MessageDispatcher\""
par singleMecHost.ualcmp.nl displayStringTextFormat "\"processed %p pk (%l)\""
par singleMecHost.ualcmp.nl forwardServiceRegistration true
par singleMecHost.ualcmp.nl forwardProtocolRegistration true
par singleMecHost.ualcmp typename "\"simu5g.nodes.mec.UALCMP.UALCMP\""
par singleMecHost.ualcmp nodeType "\"MECOrchestrator\""
par singleMecHost.ualcmp gateway "\"upf\""
par singleMecHost.ualcmp mecOrchestratorHostname "\"mecOrchestrator\""
par singleMecHost.ualcmp hasIpv4 true
par singleMecHost.ualcmp hasIpv6 false
par singleMecHost.ualcmp numExtEthInterfaces 0
par singleMecHost typename "\"simu5g.simulations.NR.mec.singleMecHost.singleMecHost\""
par singleMecHost numUes 3
par singleMecHost playgroundSizeX 1100m
attr unit m
par singleMecHost playgroundSizeY 800m
attr unit m
par singleMecHost playgroundSizeZ 50m
attr unit m

