file 102574161 1694520527                                       
version 3
run test-0-20230912-13:23:56-6635
attr configname test
attr datetime 20230912-13:23:56
attr datetimef 20230912-132356
attr experiment test
attr inifile omnetpp.ini
attr iterationvars ""
attr iterationvarsd ""
attr iterationvarsf ""
attr measurement ""
attr network simu5g.simulations.NR.mec.vehicularMec.vehicularMecTest
attr processid 6635
attr repetition 0
attr replication #0
attr resultdir results
attr runnumber 0
attr seedset 0
config image-path ../../../../images:../../../../../inet/images:../../../../../veins/images:../../../../../veins_inet/images
config sim-time-limit 5s
config *.car[*].numApps 2
config *.car[*].app[0].typename DeviceApp
config *.car[*].app[0].localPort 4509
config *.car[*].app[0].UALCMPAddress "\"ualcmp\""
config *.car[*].app[0].UALCMPPort 1000
config *.car[*].app[0].appPackageSource "\"ApplicationDescriptors/PingPongApp.json\""
config *.car[*].app[1].typename UEPingPongApp
config *.car[*].app[1].name "\"test\""
config *.car[*].app[1].deviceAppAddress "\"car[\"+string(ancestorIndex(1))+\"]\""
config *.car[*].app[1].deviceAppPort 4509
config *.car[*].app[1].startTime 0.1s
config *.car[*].app[1].localPort 4009
config *.car[*].app[1].payloadSize 2000
config *.car[*].app[1].interReqTime 0.01
config *.car[*].app[1].mecAppName "\"Test_car[\"+string(ancestorIndex(1))+\"]\""
config **.ipv4.ip.crcMode "\"computed\""
config **.crcMode "\"computed\""
config **.radius 750
config cmdenv-output-file logs.txt
config cmdenv-express-mode false
config cmdenv-redirect-output true
config image-path ../../../images
config cmdenv-express-mode true
config cmdenv-autoflush true
config num-rngs 3
config repeat 5
config seed-set 0
config output-scalar-file-append false
config output-vector-file results/test/0.vec
config output-scalar-file results/test/0.sca
config **.routingRecorder.enabled false
config **.mecHost.**.vector-recording true
config **.mecHost.**.scalar-recording true
config **.vector-recording true
config **.scalar-recording true
config **.statistic-recording true
config **.bin-recording true
config debug-on-errors false
config sim-time-limit 20s
config *.playgroundSizeX 11000m
config *.playgroundSizeY 8000m
config *.playgroundSizeZ 500m
config *.configurator.config "xmldoc(\"./demo.xml\")"
config *.gNodeB*.cellInfo.broadcastMessageInterval 0.5s
config **.fbPeriod 40
config **.amcType "\"NRAmc\""
config **.pilotMode "\"ROBUST_CQI\""
config **.targetBler 0.01
config **.blerShift 5
config network simu5g.simulations.NR.mec.vehicularMec.vehicularMecTest
config *.carrierAggregation.numComponentCarriers 1
config *.carrierAggregation.componentCarrier[0].carrierFrequency "700 MHz"
config *.carrierAggregation.componentCarrier[0].numerologyIndex 1
config *.carrierAggregation.componentCarrier[0].numBands 50
config *.*.cellularNic.LteChannelModelType "\"NRChannelModel\""
config *.gNodeB1.cellularNic.numCarriers 1
config *.gNodeB1.cellularNic.channelModel[0].componentCarrierIndex index
config *.car[*].cellularNic.numCarriers 1
config *.car[*].cellularNic.nrChannelModel[0].componentCarrierIndex 0
config *.car[*].veinsmobilityType "\"org.car2x.veins.modules.mobility.traci.TraCIMobility\""
config *.car[*].veinsmobility.x 0
config *.car[*].veinsmobility.y 0
config *.car[*].veinsmobility.z 0
config *.veinsManager.host "\"localhost\""
config *.veinsManager.moduleType "\"simu5g.nodes.cars.NRCar\""
config *.veinsManager.moduleName "\"car\""
config *.veinsManager.launchConfig "xmldoc(\"erlangen.launchd.xml\")"
config *.veinsManager.updateInterval 1s
config *.manager.updateInterval 1s
config *.manager.host "\"localhost\""
config *.manager.autoShutdown true
config *.manager.launchConfig "xmldoc(\"erlangen.launchd.xml\")"
config *.manager.moduleType "\"simu5g.nodes.NR.NRCarTrackable\""
config *.manager.moduleName "\"car\""
config *.connectionManager.sendDirect false
config *.connectionManager.maxInterfDist 0m
config *.connectionManager.drawMaxIntfDist false
config *.gNodeB*.mobility.initFromDisplayString true
config **.car[*].masterId 0
config **.car[*].macCellId 0
config **.car[*].nrMasterId 1
config **.car[*].nrMacCellId 1
config **.gNodeB1.macCellId 1
config **.gNodeB1.macNodeId 1
config **.tcp.typename Tcp
config **.tcp.advertisedWindow 65535
config **.tcp.tcpAlgorithmClass "\"TcpReno\""
config **.tcp.sackSupport true
config **.hasRNISupport false
config *.car[*].numApps 4
config *.car[*].app[0].typename DeviceApp
config *.car[*].app[0].localPort 4500
config *.car[*].app[0].UALCMPAddress "\"ualcmp\""
config *.car[*].app[0].UALCMPPort 1000
config *.car[*].app[0].appPackageSource "\"ApplicationDescriptors/PingPongApp.json\""
config *.car[*].app[1].typename UEPingPongApp
config *.car[*].app[1].name "\"Platooning\""
config *.car[*].app[1].deviceAppAddress "\"car[\"+string(ancestorIndex(1))+\"]\""
config *.car[*].app[1].deviceAppPort 4500
config *.car[*].app[1].localPort 4000
config *.car[*].app[1].startTime 1s
config *.car[*].app[1].payloadSize 6500
config *.car[*].app[1].interReqTime 0.02
config *.car[*].app[1].test 1
config *.car[*].app[1].mecAppName "\"Platooning_car[\"+string(ancestorIndex(1))+\"]\""
config *.car[*].app[2].typename DeviceApp
config *.car[*].app[2].localPort 4502
config *.car[*].app[2].UALCMPAddress "\"ualcmp\""
config *.car[*].app[2].UALCMPPort 1000
config *.car[*].app[2].appPackageSource "\"ApplicationDescriptors/PingPongApp.json\""
config *.car[*].app[3].typename UEPingPongApp
config *.car[*].app[3].name "\"Remote_driving\""
config *.car[*].app[3].deviceAppAddress "\"car[\"+string(ancestorIndex(1))+\"]\""
config *.car[*].app[3].deviceAppPort 4502
config *.car[*].app[3].startTime 1s
config *.car[*].app[3].localPort 4002
config *.car[*].app[3].payloadSize 12000
config *.car[*].app[3].interReqTime 0.01
config *.car[*].app[3].test 1
config *.car[*].app[3].mecAppName "\"Remote_driving_car[\"+string(ancestorIndex(1))+\"]\""
config **.numCars 1
config *.mecHost.maxMECApps 100000
config *.mecHost.maxRam 320000GB
config *.mecHost.maxDisk 200000TB
config *.mecHost.maxCpuSpeed 10000000
config **.maxCpuSpeed 100000
config *.gNodeB*.mecHost "\"mecHost\""
config *.mecHost.bsList "\"gNodeB1\""
config *.mecHost.mecPlatformManager.mecOrchestrator "\"mecOrchestrator\""
config *.mecHost.mecPlatform.numMecServices 1
config *.mecHost.mecPlatform.mecService[0].typename LocationService
config *.mecHost.mecPlatform.mecService[0].localAddress "\"mecHost.virtualisationInfrastructure\""
config *.mecHost.mecPlatform.mecService[0].localPort 10020
config *.mecHost.mecPlatform.mecService[0].rng-0 0
config *.mecHost.mecPlatform.mecService[0].rng-1 1
config *.mecHost.mecPlatform.mecService[0].requestServiceTime 100us
config *.mecHost.mecPlatform.mecService[0].subscriptionServiceTime 11us
config *.mecHost.mecPlatform.serviceRegistry.localAddress "\"mecHost.virtualisationInfrastructure\""
config *.mecHost.mecPlatform.serviceRegistry.localPort 10021
config *.mecHost.mecPlatform.serviceRegistry.rng-0 0
config *.mecHost.mecPlatform.serviceRegistry.rng-1 1
config **.mecOrchestrator.mecHostList "\"mecHost\""
config *.mecOrchestrator.mecApplicationPackageList "\"PingPongApp\""

vector 0 vehicularMecTest.upf.ppp[0].ppp transmissionState:vector ETV
attr interpolationmode sample-hold
attr recordingmode vector
attr source transmissionStateChanged
attr title "tx state"
vector 1 vehicularMecTest.upf.pppIf.ppp transmissionState:vector ETV
attr interpolationmode sample-hold
attr recordingmode vector
attr source transmissionStateChanged
attr title "tx state"
vector 2 vehicularMecTest.upf.udp passedUpPk:vector(count) ETV
attr interpolationmode none
attr recordingmode vector(count)
attr source packetSentToUpper
attr title "packets passed up, count"
vector 3 vehicularMecTest.upf.udp droppedPkWrongPort:vector(count) ETV
attr interpolationmode none
attr recordingmode vector(count)
attr source packetDropReasonIsNoPortFound(packetDropped)
attr title "packets dropped (wrong port), count"
vector 4 vehicularMecTest.upf.udp droppedPkBadChecksum:vector(count) ETV
attr interpolationmode none
attr recordingmode vector(count)
attr source packetDropReasonIsIncorrectlyReceived(packetDropped)
attr title "packets dropped (checksum error), count"
vector 5 vehicularMecTest.gNodeB1.pppIf.ppp transmissionState:vector ETV
attr interpolationmode sample-hold
attr recordingmode vector
attr source transmissionStateChanged
attr title "tx state"
vector 6 vehicularMecTest.gNodeB1.pppMEHostIf.ppp transmissionState:vector ETV
attr interpolationmode sample-hold
attr recordingmode vector
attr source transmissionStateChanged
attr title "tx state"
vector 7 vehicularMecTest.gNodeB1.udp passedUpPk:vector(count) ETV
attr interpolationmode none
attr recordingmode vector(count)
attr source packetSentToUpper
attr title "packets passed up, count"
vector 8 vehicularMecTest.gNodeB1.udp droppedPkWrongPort:vector(count) ETV
attr interpolationmode none
attr recordingmode vector(count)
attr source packetDropReasonIsNoPortFound(packetDropped)
attr title "packets dropped (wrong port), count"
vector 9 vehicularMecTest.gNodeB1.udp droppedPkBadChecksum:vector(count) ETV
attr interpolationmode none
attr recordingmode vector(count)
attr source packetDropReasonIsIncorrectlyReceived(packetDropped)
attr title "packets dropped (checksum error), count"
vector 10 vehicularMecTest.mecHost.virtualisationInfrastructure.pppIf[0].ppp transmissionState:vector ETV
attr interpolationmode sample-hold
attr recordingmode vector
attr source transmissionStateChanged
attr title "tx state"
vector 11 vehicularMecTest.mecHost.virtualisationInfrastructure.udp passedUpPk:vector(count) ETV
attr interpolationmode none
attr recordingmode vector(count)
attr source packetSentToUpper
attr title "packets passed up, count"
vector 12 vehicularMecTest.mecHost.virtualisationInfrastructure.udp droppedPkWrongPort:vector(count) ETV
attr interpolationmode none
attr recordingmode vector(count)
attr source packetDropReasonIsNoPortFound(packetDropped)
attr title "packets dropped (wrong port), count"
vector 13 vehicularMecTest.mecHost.virtualisationInfrastructure.udp droppedPkBadChecksum:vector(count) ETV
attr interpolationmode none
attr recordingmode vector(count)
attr source packetDropReasonIsIncorrectlyReceived(packetDropped)
attr title "packets dropped (checksum error), count"
vector 14 vehicularMecTest.mecHost.upf_mec.ppp[0].ppp transmissionState:vector ETV
attr interpolationmode sample-hold
attr recordingmode vector
attr source transmissionStateChanged
attr title "tx state"
vector 15 vehicularMecTest.mecHost.upf_mec.pppIf.ppp transmissionState:vector ETV
attr interpolationmode sample-hold
attr recordingmode vector
attr source transmissionStateChanged
attr title "tx state"
vector 16 vehicularMecTest.mecHost.upf_mec.udp passedUpPk:vector(count) ETV
attr interpolationmode none
attr recordingmode vector(count)
attr source packetSentToUpper
attr title "packets passed up, count"
vector 17 vehicularMecTest.mecHost.upf_mec.udp droppedPkWrongPort:vector(count) ETV
attr interpolationmode none
attr recordingmode vector(count)
attr source packetDropReasonIsNoPortFound(packetDropped)
attr title "packets dropped (wrong port), count"
vector 18 vehicularMecTest.mecHost.upf_mec.udp droppedPkBadChecksum:vector(count) ETV
attr interpolationmode none
attr recordingmode vector(count)
attr source packetDropReasonIsIncorrectlyReceived(packetDropped)
attr title "packets dropped (checksum error), count"
vector 19 vehicularMecTest.ualcmp.pppIf.ppp transmissionState:vector ETV
attr interpolationmode sample-hold
attr recordingmode vector
attr source transmissionStateChanged
attr title "tx state"
vector 20 vehicularMecTest.ualcmp.udp passedUpPk:vector(count) ETV
attr interpolationmode none
attr recordingmode vector(count)
attr source packetSentToUpper
attr title "packets passed up, count"
vector 21 vehicularMecTest.ualcmp.udp droppedPkWrongPort:vector(count) ETV
attr interpolationmode none
attr recordingmode vector(count)
attr source packetDropReasonIsNoPortFound(packetDropped)
attr title "packets dropped (wrong port), count"
vector 22 vehicularMecTest.ualcmp.udp droppedPkBadChecksum:vector(count) ETV
attr interpolationmode none
attr recordingmode vector(count)
attr source packetDropReasonIsIncorrectlyReceived(packetDropped)
attr title "packets dropped (checksum error), count"
vector 23 vehicularMecTest.gNodeB1.cellularNic.mac avgServedBlocksUl:vector ETV
attr recordingmode vector
attr source avgServedBlocksUl
attr title "Avg Served Blocks Ul"
attr unit blocks
vector 24 vehicularMecTest.gNodeB1.cellularNic.mac avgServedBlocksDl:vector ETV
attr recordingmode vector
attr source avgServedBlocksDl
attr title "Avg Served Blocks Dl"
attr unit blocks
vector 25 vehicularMecTest.car[0].udp passedUpPk:vector(count) ETV
attr interpolationmode none
attr recordingmode vector(count)
attr source packetSentToUpper
attr title "packets passed up, count"
vector 26 vehicularMecTest.car[0].udp droppedPkWrongPort:vector(count) ETV
attr interpolationmode none
attr recordingmode vector(count)
attr source packetDropReasonIsNoPortFound(packetDropped)
attr title "packets dropped (wrong port), count"
vector 27 vehicularMecTest.car[0].udp droppedPkBadChecksum:vector(count) ETV
attr interpolationmode none
attr recordingmode vector(count)
attr source packetDropReasonIsIncorrectlyReceived(packetDropped)
attr title "packets dropped (checksum error), count"
vector 28 vehicularMecTest.car[0].cellularNic.phy servingCell:vector ETV
attr recordingmode vector
attr source servingCell
attr title "ID of the serving eNodeB for the UE"
attr unit ""
vector 29 vehicularMecTest.car[0].cellularNic.nrPhy servingCell:vector ETV
attr recordingmode vector
attr source servingCell
attr title "ID of the serving eNodeB for the UE"
attr unit ""
vector 30 vehicularMecTest.car[0].veinsmobility posx ETV
vector 31 vehicularMecTest.car[0].veinsmobility posy ETV
vector 32 vehicularMecTest.car[1].udp passedUpPk:vector(count) ETV
attr interpolationmode none
attr recordingmode vector(count)
attr source packetSentToUpper
attr title "packets passed up, count"
vector 33 vehicularMecTest.car[1].udp droppedPkWrongPort:vector(count) ETV
attr interpolationmode none
attr recordingmode vector(count)
attr source packetDropReasonIsNoPortFound(packetDropped)
attr title "packets dropped (wrong port), count"
vector 34 vehicularMecTest.car[1].udp droppedPkBadChecksum:vector(count) ETV
attr interpolationmode none
attr recordingmode vector(count)
attr source packetDropReasonIsIncorrectlyReceived(packetDropped)
attr title "packets dropped (checksum error), count"
vector 35 vehicularMecTest.car[1].cellularNic.phy servingCell:vector ETV
attr recordingmode vector
attr source servingCell
attr title "ID of the serving eNodeB for the UE"
attr unit ""
vector 36 vehicularMecTest.car[1].cellularNic.nrPhy servingCell:vector ETV
attr recordingmode vector
attr source servingCell
attr title "ID of the serving eNodeB for the UE"
attr unit ""
vector 37 vehicularMecTest.car[1].veinsmobility posx ETV
vector 38 vehicularMecTest.car[1].veinsmobility posy ETV
vector 39 vehicularMecTest.car[2].udp passedUpPk:vector(count) ETV
attr interpolationmode none
attr recordingmode vector(count)
attr source packetSentToUpper
attr title "packets passed up, count"
vector 40 vehicularMecTest.car[2].udp droppedPkWrongPort:vector(count) ETV
attr interpolationmode none
attr recordingmode vector(count)
attr source packetDropReasonIsNoPortFound(packetDropped)
attr title "packets dropped (wrong port), count"
vector 41 vehicularMecTest.car[2].udp droppedPkBadChecksum:vector(count) ETV
attr interpolationmode none
attr recordingmode vector(count)
attr source packetDropReasonIsIncorrectlyReceived(packetDropped)
attr title "packets dropped (checksum error), count"
vector 42 vehicularMecTest.car[2].cellularNic.phy servingCell:vector ETV
attr recordingmode vector
attr source servingCell
attr title "ID of the serving eNodeB for the UE"
attr unit ""
vector 43 vehicularMecTest.car[2].cellularNic.nrPhy servingCell:vector ETV
attr recordingmode vector
attr source servingCell
attr title "ID of the serving eNodeB for the UE"
attr unit ""
vector 44 vehicularMecTest.car[2].veinsmobility posx ETV
vector 45 vehicularMecTest.car[2].veinsmobility posy ETV
vector 46 vehicularMecTest.car[3].udp passedUpPk:vector(count) ETV
attr interpolationmode none
attr recordingmode vector(count)
attr source packetSentToUpper
attr title "packets passed up, count"
vector 47 vehicularMecTest.car[3].udp droppedPkWrongPort:vector(count) ETV
attr interpolationmode none
attr recordingmode vector(count)
attr source packetDropReasonIsNoPortFound(packetDropped)
attr title "packets dropped (wrong port), count"
vector 48 vehicularMecTest.car[3].udp droppedPkBadChecksum:vector(count) ETV
attr interpolationmode none
attr recordingmode vector(count)
attr source packetDropReasonIsIncorrectlyReceived(packetDropped)
attr title "packets dropped (checksum error), count"
vector 49 vehicularMecTest.car[3].cellularNic.phy servingCell:vector ETV
attr recordingmode vector
attr source servingCell
attr title "ID of the serving eNodeB for the UE"
attr unit ""
vector 50 vehicularMecTest.car[3].cellularNic.nrPhy servingCell:vector ETV
attr recordingmode vector
attr source servingCell
attr title "ID of the serving eNodeB for the UE"
attr unit ""
vector 51 vehicularMecTest.car[3].veinsmobility posx ETV
vector 52 vehicularMecTest.car[3].veinsmobility posy ETV
vector 53 vehicularMecTest.car[4].udp passedUpPk:vector(count) ETV
attr interpolationmode none
attr recordingmode vector(count)
attr source packetSentToUpper
attr title "packets passed up, count"
vector 54 vehicularMecTest.car[4].udp droppedPkWrongPort:vector(count) ETV
attr interpolationmode none
attr recordingmode vector(count)
attr source packetDropReasonIsNoPortFound(packetDropped)
attr title "packets dropped (wrong port), count"
vector 55 vehicularMecTest.car[4].udp droppedPkBadChecksum:vector(count) ETV
attr interpolationmode none
attr recordingmode vector(count)
attr source packetDropReasonIsIncorrectlyReceived(packetDropped)
attr title "packets dropped (checksum error), count"
vector 56 vehicularMecTest.car[4].cellularNic.phy servingCell:vector ETV
attr recordingmode vector
attr source servingCell
attr title "ID of the serving eNodeB for the UE"
attr unit ""
vector 57 vehicularMecTest.car[4].cellularNic.nrPhy servingCell:vector ETV
attr recordingmode vector
attr source servingCell
attr title "ID of the serving eNodeB for the UE"
attr unit ""
vector 58 vehicularMecTest.car[4].veinsmobility posx ETV
vector 59 vehicularMecTest.car[4].veinsmobility posy ETV
vector 60 vehicularMecTest.car[5].udp passedUpPk:vector(count) ETV
attr interpolationmode none
attr recordingmode vector(count)
attr source packetSentToUpper
attr title "packets passed up, count"
vector 61 vehicularMecTest.car[5].udp droppedPkWrongPort:vector(count) ETV
attr interpolationmode none
attr recordingmode vector(count)
attr source packetDropReasonIsNoPortFound(packetDropped)
attr title "packets dropped (wrong port), count"
vector 62 vehicularMecTest.car[5].udp droppedPkBadChecksum:vector(count) ETV
attr interpolationmode none
attr recordingmode vector(count)
attr source packetDropReasonIsIncorrectlyReceived(packetDropped)
attr title "packets dropped (checksum error), count"
vector 63 vehicularMecTest.car[5].cellularNic.phy servingCell:vector ETV
attr recordingmode vector
attr source servingCell
attr title "ID of the serving eNodeB for the UE"
attr unit ""
vector 64 vehicularMecTest.car[5].cellularNic.nrPhy servingCell:vector ETV
attr recordingmode vector
attr source servingCell
attr title "ID of the serving eNodeB for the UE"
attr unit ""
vector 65 vehicularMecTest.car[5].veinsmobility posx ETV
vector 66 vehicularMecTest.car[5].veinsmobility posy ETV
vector 67 vehicularMecTest.car[6].udp passedUpPk:vector(count) ETV
attr interpolationmode none
attr recordingmode vector(count)
attr source packetSentToUpper
attr title "packets passed up, count"
vector 68 vehicularMecTest.car[6].udp droppedPkWrongPort:vector(count) ETV
attr interpolationmode none
attr recordingmode vector(count)
attr source packetDropReasonIsNoPortFound(packetDropped)
attr title "packets dropped (wrong port), count"
vector 69 vehicularMecTest.car[6].udp droppedPkBadChecksum:vector(count) ETV
attr interpolationmode none
attr recordingmode vector(count)
attr source packetDropReasonIsIncorrectlyReceived(packetDropped)
attr title "packets dropped (checksum error), count"
vector 70 vehicularMecTest.car[6].cellularNic.phy servingCell:vector ETV
attr recordingmode vector
attr source servingCell
attr title "ID of the serving eNodeB for the UE"
attr unit ""
vector 71 vehicularMecTest.car[6].cellularNic.nrPhy servingCell:vector ETV
attr recordingmode vector
attr source servingCell
attr title "ID of the serving eNodeB for the UE"
attr unit ""
vector 72 vehicularMecTest.car[6].veinsmobility posx ETV
vector 73 vehicularMecTest.car[6].veinsmobility posy ETV
vector 74 vehicularMecTest.car[7].udp passedUpPk:vector(count) ETV
attr interpolationmode none
attr recordingmode vector(count)
attr source packetSentToUpper
attr title "packets passed up, count"
vector 75 vehicularMecTest.car[7].udp droppedPkWrongPort:vector(count) ETV
attr interpolationmode none
attr recordingmode vector(count)
attr source packetDropReasonIsNoPortFound(packetDropped)
attr title "packets dropped (wrong port), count"
vector 76 vehicularMecTest.car[7].udp droppedPkBadChecksum:vector(count) ETV
attr interpolationmode none
attr recordingmode vector(count)
attr source packetDropReasonIsIncorrectlyReceived(packetDropped)
attr title "packets dropped (checksum error), count"
vector 77 vehicularMecTest.car[7].cellularNic.phy servingCell:vector ETV
attr recordingmode vector
attr source servingCell
attr title "ID of the serving eNodeB for the UE"
attr unit ""
vector 78 vehicularMecTest.car[7].cellularNic.nrPhy servingCell:vector ETV
attr recordingmode vector
attr source servingCell
attr title "ID of the serving eNodeB for the UE"
attr unit ""
vector 79 vehicularMecTest.car[7].veinsmobility posx ETV
vector 80 vehicularMecTest.car[7].veinsmobility posy ETV
vector 81 vehicularMecTest.car[8].udp passedUpPk:vector(count) ETV
attr interpolationmode none
attr recordingmode vector(count)
attr source packetSentToUpper
attr title "packets passed up, count"
vector 82 vehicularMecTest.car[8].udp droppedPkWrongPort:vector(count) ETV
attr interpolationmode none
attr recordingmode vector(count)
attr source packetDropReasonIsNoPortFound(packetDropped)
attr title "packets dropped (wrong port), count"
vector 83 vehicularMecTest.car[8].udp droppedPkBadChecksum:vector(count) ETV
attr interpolationmode none
attr recordingmode vector(count)
attr source packetDropReasonIsIncorrectlyReceived(packetDropped)
attr title "packets dropped (checksum error), count"
vector 84 vehicularMecTest.car[8].cellularNic.phy servingCell:vector ETV
attr recordingmode vector
attr source servingCell
attr title "ID of the serving eNodeB for the UE"
attr unit ""
vector 85 vehicularMecTest.car[8].cellularNic.nrPhy servingCell:vector ETV
attr recordingmode vector
attr source servingCell
attr title "ID of the serving eNodeB for the UE"
attr unit ""
vector 86 vehicularMecTest.car[8].veinsmobility posx ETV
vector 87 vehicularMecTest.car[8].veinsmobility posy ETV
vector 88 vehicularMecTest.car[9].udp passedUpPk:vector(count) ETV
attr interpolationmode none
attr recordingmode vector(count)
attr source packetSentToUpper
attr title "packets passed up, count"
vector 89 vehicularMecTest.car[9].udp droppedPkWrongPort:vector(count) ETV
attr interpolationmode none
attr recordingmode vector(count)
attr source packetDropReasonIsNoPortFound(packetDropped)
attr title "packets dropped (wrong port), count"
vector 90 vehicularMecTest.car[9].udp droppedPkBadChecksum:vector(count) ETV
attr interpolationmode none
attr recordingmode vector(count)
attr source packetDropReasonIsIncorrectlyReceived(packetDropped)
attr title "packets dropped (checksum error), count"
vector 91 vehicularMecTest.car[9].cellularNic.phy servingCell:vector ETV
attr recordingmode vector
attr source servingCell
attr title "ID of the serving eNodeB for the UE"
attr unit ""
vector 92 vehicularMecTest.car[9].cellularNic.nrPhy servingCell:vector ETV
attr recordingmode vector
attr source servingCell
attr title "ID of the serving eNodeB for the UE"
attr unit ""
vector 93 vehicularMecTest.car[9].veinsmobility posx ETV
vector 94 vehicularMecTest.car[9].veinsmobility posy ETV
vector 95 vehicularMecTest.car[10].udp passedUpPk:vector(count) ETV
attr interpolationmode none
attr recordingmode vector(count)
attr source packetSentToUpper
attr title "packets passed up, count"
vector 96 vehicularMecTest.car[10].udp droppedPkWrongPort:vector(count) ETV
attr interpolationmode none
attr recordingmode vector(count)
attr source packetDropReasonIsNoPortFound(packetDropped)
attr title "packets dropped (wrong port), count"
vector 97 vehicularMecTest.car[10].udp droppedPkBadChecksum:vector(count) ETV
attr interpolationmode none
attr recordingmode vector(count)
attr source packetDropReasonIsIncorrectlyReceived(packetDropped)
attr title "packets dropped (checksum error), count"
vector 98 vehicularMecTest.car[10].cellularNic.phy servingCell:vector ETV
attr recordingmode vector
attr source servingCell
attr title "ID of the serving eNodeB for the UE"
attr unit ""
vector 99 vehicularMecTest.car[10].cellularNic.nrPhy servingCell:vector ETV
attr recordingmode vector
attr source servingCell
attr title "ID of the serving eNodeB for the UE"
attr unit ""
vector 100 vehicularMecTest.car[10].veinsmobility posx ETV
vector 101 vehicularMecTest.car[10].veinsmobility posy ETV
vector 102 vehicularMecTest.car[11].udp passedUpPk:vector(count) ETV
attr interpolationmode none
attr recordingmode vector(count)
attr source packetSentToUpper
attr title "packets passed up, count"
vector 103 vehicularMecTest.car[11].udp droppedPkWrongPort:vector(count) ETV
attr interpolationmode none
attr recordingmode vector(count)
attr source packetDropReasonIsNoPortFound(packetDropped)
attr title "packets dropped (wrong port), count"
vector 104 vehicularMecTest.car[11].udp droppedPkBadChecksum:vector(count) ETV
attr interpolationmode none
attr recordingmode vector(count)
attr source packetDropReasonIsIncorrectlyReceived(packetDropped)
attr title "packets dropped (checksum error), count"
vector 105 vehicularMecTest.car[11].cellularNic.phy servingCell:vector ETV
attr recordingmode vector
attr source servingCell
attr title "ID of the serving eNodeB for the UE"
attr unit ""
vector 106 vehicularMecTest.car[11].cellularNic.nrPhy servingCell:vector ETV
attr recordingmode vector
attr source servingCell
attr title "ID of the serving eNodeB for the UE"
attr unit ""
vector 107 vehicularMecTest.car[11].veinsmobility posx ETV
vector 108 vehicularMecTest.car[11].veinsmobility posy ETV
vector 109 vehicularMecTest.car[12].udp passedUpPk:vector(count) ETV
attr interpolationmode none
attr recordingmode vector(count)
attr source packetSentToUpper
attr title "packets passed up, count"
vector 110 vehicularMecTest.car[12].udp droppedPkWrongPort:vector(count) ETV
attr interpolationmode none
attr recordingmode vector(count)
attr source packetDropReasonIsNoPortFound(packetDropped)
attr title "packets dropped (wrong port), count"
vector 111 vehicularMecTest.car[12].udp droppedPkBadChecksum:vector(count) ETV
attr interpolationmode none
attr recordingmode vector(count)
attr source packetDropReasonIsIncorrectlyReceived(packetDropped)
attr title "packets dropped (checksum error), count"
vector 112 vehicularMecTest.car[12].cellularNic.phy servingCell:vector ETV
attr recordingmode vector
attr source servingCell
attr title "ID of the serving eNodeB for the UE"
attr unit ""
vector 113 vehicularMecTest.car[12].cellularNic.nrPhy servingCell:vector ETV
attr recordingmode vector
attr source servingCell
attr title "ID of the serving eNodeB for the UE"
attr unit ""
vector 114 vehicularMecTest.car[12].veinsmobility posx ETV
vector 115 vehicularMecTest.car[12].veinsmobility posy ETV
vector 116 vehicularMecTest.car[13].udp passedUpPk:vector(count) ETV
attr interpolationmode none
attr recordingmode vector(count)
attr source packetSentToUpper
attr title "packets passed up, count"
vector 117 vehicularMecTest.car[13].udp droppedPkWrongPort:vector(count) ETV
attr interpolationmode none
attr recordingmode vector(count)
attr source packetDropReasonIsNoPortFound(packetDropped)
attr title "packets dropped (wrong port), count"
vector 118 vehicularMecTest.car[13].udp droppedPkBadChecksum:vector(count) ETV
attr interpolationmode none
attr recordingmode vector(count)
attr source packetDropReasonIsIncorrectlyReceived(packetDropped)
attr title "packets dropped (checksum error), count"
vector 119 vehicularMecTest.car[13].cellularNic.phy servingCell:vector ETV
attr recordingmode vector
attr source servingCell
attr title "ID of the serving eNodeB for the UE"
attr unit ""
vector 120 vehicularMecTest.car[13].cellularNic.nrPhy servingCell:vector ETV
attr recordingmode vector
attr source servingCell
attr title "ID of the serving eNodeB for the UE"
attr unit ""
vector 121 vehicularMecTest.car[13].veinsmobility posx ETV
vector 122 vehicularMecTest.car[13].veinsmobility posy ETV
vector 123 vehicularMecTest.car[14].udp passedUpPk:vector(count) ETV
attr interpolationmode none
attr recordingmode vector(count)
attr source packetSentToUpper
attr title "packets passed up, count"
vector 124 vehicularMecTest.car[14].udp droppedPkWrongPort:vector(count) ETV
attr interpolationmode none
attr recordingmode vector(count)
attr source packetDropReasonIsNoPortFound(packetDropped)
attr title "packets dropped (wrong port), count"
vector 125 vehicularMecTest.car[14].udp droppedPkBadChecksum:vector(count) ETV
attr interpolationmode none
attr recordingmode vector(count)
attr source packetDropReasonIsIncorrectlyReceived(packetDropped)
attr title "packets dropped (checksum error), count"
vector 126 vehicularMecTest.car[14].cellularNic.phy servingCell:vector ETV
attr recordingmode vector
attr source servingCell
attr title "ID of the serving eNodeB for the UE"
attr unit ""
vector 127 vehicularMecTest.car[14].cellularNic.nrPhy servingCell:vector ETV
attr recordingmode vector
attr source servingCell
attr title "ID of the serving eNodeB for the UE"
attr unit ""
vector 128 vehicularMecTest.car[14].veinsmobility posx ETV
vector 129 vehicularMecTest.car[14].veinsmobility posy ETV
vector 130 vehicularMecTest.car[15].udp passedUpPk:vector(count) ETV
attr interpolationmode none
attr recordingmode vector(count)
attr source packetSentToUpper
attr title "packets passed up, count"
vector 131 vehicularMecTest.car[15].udp droppedPkWrongPort:vector(count) ETV
attr interpolationmode none
attr recordingmode vector(count)
attr source packetDropReasonIsNoPortFound(packetDropped)
attr title "packets dropped (wrong port), count"
vector 132 vehicularMecTest.car[15].udp droppedPkBadChecksum:vector(count) ETV
attr interpolationmode none
attr recordingmode vector(count)
attr source packetDropReasonIsIncorrectlyReceived(packetDropped)
attr title "packets dropped (checksum error), count"
vector 133 vehicularMecTest.car[15].cellularNic.phy servingCell:vector ETV
attr recordingmode vector
attr source servingCell
attr title "ID of the serving eNodeB for the UE"
attr unit ""
vector 134 vehicularMecTest.car[15].cellularNic.nrPhy servingCell:vector ETV
attr recordingmode vector
attr source servingCell
attr title "ID of the serving eNodeB for the UE"
attr unit ""
vector 135 vehicularMecTest.car[15].veinsmobility posx ETV
vector 136 vehicularMecTest.car[15].veinsmobility posy ETV
vector 137 vehicularMecTest.car[16].udp passedUpPk:vector(count) ETV
attr interpolationmode none
attr recordingmode vector(count)
attr source packetSentToUpper
attr title "packets passed up, count"
vector 138 vehicularMecTest.car[16].udp droppedPkWrongPort:vector(count) ETV
attr interpolationmode none
attr recordingmode vector(count)
attr source packetDropReasonIsNoPortFound(packetDropped)
attr title "packets dropped (wrong port), count"
vector 139 vehicularMecTest.car[16].udp droppedPkBadChecksum:vector(count) ETV
attr interpolationmode none
attr recordingmode vector(count)
attr source packetDropReasonIsIncorrectlyReceived(packetDropped)
attr title "packets dropped (checksum error), count"
vector 140 vehicularMecTest.car[16].cellularNic.phy servingCell:vector ETV
attr recordingmode vector
attr source servingCell
attr title "ID of the serving eNodeB for the UE"
attr unit ""
vector 141 vehicularMecTest.car[16].cellularNic.nrPhy servingCell:vector ETV
attr recordingmode vector
attr source servingCell
attr title "ID of the serving eNodeB for the UE"
attr unit ""
vector 142 vehicularMecTest.car[16].veinsmobility posx ETV
vector 143 vehicularMecTest.car[16].veinsmobility posy ETV
vector 144 vehicularMecTest.car[17].udp passedUpPk:vector(count) ETV
attr interpolationmode none
attr recordingmode vector(count)
attr source packetSentToUpper
attr title "packets passed up, count"
vector 145 vehicularMecTest.car[17].udp droppedPkWrongPort:vector(count) ETV
attr interpolationmode none
attr recordingmode vector(count)
attr source packetDropReasonIsNoPortFound(packetDropped)
attr title "packets dropped (wrong port), count"
vector 146 vehicularMecTest.car[17].udp droppedPkBadChecksum:vector(count) ETV
attr interpolationmode none
attr recordingmode vector(count)
attr source packetDropReasonIsIncorrectlyReceived(packetDropped)
attr title "packets dropped (checksum error), count"
vector 147 vehicularMecTest.car[17].cellularNic.phy servingCell:vector ETV
attr recordingmode vector
attr source servingCell
attr title "ID of the serving eNodeB for the UE"
attr unit ""
vector 148 vehicularMecTest.car[17].cellularNic.nrPhy servingCell:vector ETV
attr recordingmode vector
attr source servingCell
attr title "ID of the serving eNodeB for the UE"
attr unit ""
vector 149 vehicularMecTest.car[17].veinsmobility posx ETV
vector 150 vehicularMecTest.car[17].veinsmobility posy ETV
vector 151 vehicularMecTest.car[18].udp passedUpPk:vector(count) ETV
attr interpolationmode none
attr recordingmode vector(count)
attr source packetSentToUpper
attr title "packets passed up, count"
vector 152 vehicularMecTest.car[18].udp droppedPkWrongPort:vector(count) ETV
attr interpolationmode none
attr recordingmode vector(count)
attr source packetDropReasonIsNoPortFound(packetDropped)
attr title "packets dropped (wrong port), count"
vector 153 vehicularMecTest.car[18].udp droppedPkBadChecksum:vector(count) ETV
attr interpolationmode none
attr recordingmode vector(count)
attr source packetDropReasonIsIncorrectlyReceived(packetDropped)
attr title "packets dropped (checksum error), count"
vector 154 vehicularMecTest.car[18].cellularNic.phy servingCell:vector ETV
attr recordingmode vector
attr source servingCell
attr title "ID of the serving eNodeB for the UE"
attr unit ""
vector 155 vehicularMecTest.car[18].cellularNic.nrPhy servingCell:vector ETV
attr recordingmode vector
attr source servingCell
attr title "ID of the serving eNodeB for the UE"
attr unit ""
vector 156 vehicularMecTest.car[18].veinsmobility posx ETV
vector 157 vehicularMecTest.car[18].veinsmobility posy ETV
vector 158 vehicularMecTest.car[0].tcp.conn-93 tcpRcvQueueBytes:vector ETV
attr interpolationmode sample-hold
attr recordingmode vector
vector 159 vehicularMecTest.car[0].tcp.conn-93 rcvAdv:vector ETV
attr interpolationmode sample-hold
attr recordingmode vector
vector 160 vehicularMecTest.car[0].tcp.conn-93 rcvWnd:vector ETV
attr interpolationmode sample-hold
attr recordingmode vector
vector 161 vehicularMecTest.car[0].tcp.conn-93 sndAck:vector ETV
attr interpolationmode sample-hold
attr recordingmode vector
vector 162 vehicularMecTest.car[1].tcp.conn-94 tcpRcvQueueBytes:vector ETV
attr interpolationmode sample-hold
attr recordingmode vector
vector 163 vehicularMecTest.car[1].tcp.conn-94 rcvAdv:vector ETV
attr interpolationmode sample-hold
attr recordingmode vector
vector 164 vehicularMecTest.car[1].tcp.conn-94 rcvWnd:vector ETV
attr interpolationmode sample-hold
attr recordingmode vector
vector 165 vehicularMecTest.car[1].tcp.conn-94 sndAck:vector ETV
attr interpolationmode sample-hold
attr recordingmode vector
vector 166 vehicularMecTest.car[2].tcp.conn-95 tcpRcvQueueBytes:vector ETV
attr interpolationmode sample-hold
attr recordingmode vector
vector 167 vehicularMecTest.car[2].tcp.conn-95 rcvAdv:vector ETV
attr interpolationmode sample-hold
attr recordingmode vector
vector 168 vehicularMecTest.car[2].tcp.conn-95 rcvWnd:vector ETV
attr interpolationmode sample-hold
attr recordingmode vector
vector 169 vehicularMecTest.car[2].tcp.conn-95 sndAck:vector ETV
attr interpolationmode sample-hold
attr recordingmode vector
vector 170 vehicularMecTest.car[3].tcp.conn-96 tcpRcvQueueBytes:vector ETV
attr interpolationmode sample-hold
attr recordingmode vector
vector 171 vehicularMecTest.car[3].tcp.conn-96 rcvAdv:vector ETV
attr interpolationmode sample-hold
attr recordingmode vector
vector 172 vehicularMecTest.car[3].tcp.conn-96 rcvWnd:vector ETV
attr interpolationmode sample-hold
attr recordingmode vector
vector 173 vehicularMecTest.car[3].tcp.conn-96 sndAck:vector ETV
attr interpolationmode sample-hold
attr recordingmode vector
vector 174 vehicularMecTest.car[4].tcp.conn-97 tcpRcvQueueBytes:vector ETV
attr interpolationmode sample-hold
attr recordingmode vector
vector 175 vehicularMecTest.car[4].tcp.conn-97 rcvAdv:vector ETV
attr interpolationmode sample-hold
attr recordingmode vector
vector 176 vehicularMecTest.car[4].tcp.conn-97 rcvWnd:vector ETV
attr interpolationmode sample-hold
attr recordingmode vector
vector 177 vehicularMecTest.car[4].tcp.conn-97 sndAck:vector ETV
attr interpolationmode sample-hold
attr recordingmode vector
vector 178 vehicularMecTest.car[5].tcp.conn-98 tcpRcvQueueBytes:vector ETV
attr interpolationmode sample-hold
attr recordingmode vector
vector 179 vehicularMecTest.car[5].tcp.conn-98 rcvAdv:vector ETV
attr interpolationmode sample-hold
attr recordingmode vector
vector 180 vehicularMecTest.car[5].tcp.conn-98 rcvWnd:vector ETV
attr interpolationmode sample-hold
attr recordingmode vector
vector 181 vehicularMecTest.car[5].tcp.conn-98 sndAck:vector ETV
attr interpolationmode sample-hold
attr recordingmode vector
vector 182 vehicularMecTest.car[6].tcp.conn-99 tcpRcvQueueBytes:vector ETV
attr interpolationmode sample-hold
attr recordingmode vector
vector 183 vehicularMecTest.car[6].tcp.conn-99 rcvAdv:vector ETV
attr interpolationmode sample-hold
attr recordingmode vector
vector 184 vehicularMecTest.car[6].tcp.conn-99 rcvWnd:vector ETV
attr interpolationmode sample-hold
attr recordingmode vector
vector 185 vehicularMecTest.car[6].tcp.conn-99 sndAck:vector ETV
attr interpolationmode sample-hold
attr recordingmode vector
vector 186 vehicularMecTest.car[7].tcp.conn-100 tcpRcvQueueBytes:vector ETV
attr interpolationmode sample-hold
attr recordingmode vector
vector 187 vehicularMecTest.car[7].tcp.conn-100 rcvAdv:vector ETV
attr interpolationmode sample-hold
attr recordingmode vector
vector 188 vehicularMecTest.car[7].tcp.conn-100 rcvWnd:vector ETV
attr interpolationmode sample-hold
attr recordingmode vector
vector 189 vehicularMecTest.car[7].tcp.conn-100 sndAck:vector ETV
attr interpolationmode sample-hold
attr recordingmode vector
vector 190 vehicularMecTest.car[8].tcp.conn-101 tcpRcvQueueBytes:vector ETV
attr interpolationmode sample-hold
attr recordingmode vector
vector 191 vehicularMecTest.car[8].tcp.conn-101 rcvAdv:vector ETV
attr interpolationmode sample-hold
attr recordingmode vector
vector 192 vehicularMecTest.car[8].tcp.conn-101 rcvWnd:vector ETV
attr interpolationmode sample-hold
attr recordingmode vector
vector 193 vehicularMecTest.car[8].tcp.conn-101 sndAck:vector ETV
attr interpolationmode sample-hold
attr recordingmode vector
vector 194 vehicularMecTest.car[9].tcp.conn-102 tcpRcvQueueBytes:vector ETV
attr interpolationmode sample-hold
attr recordingmode vector
vector 195 vehicularMecTest.car[9].tcp.conn-102 rcvAdv:vector ETV
attr interpolationmode sample-hold
attr recordingmode vector
vector 196 vehicularMecTest.car[9].tcp.conn-102 rcvWnd:vector ETV
attr interpolationmode sample-hold
attr recordingmode vector
vector 197 vehicularMecTest.car[9].tcp.conn-102 sndAck:vector ETV
attr interpolationmode sample-hold
attr recordingmode vector
vector 198 vehicularMecTest.car[10].tcp.conn-103 tcpRcvQueueBytes:vector ETV
attr interpolationmode sample-hold
attr recordingmode vector
vector 199 vehicularMecTest.car[10].tcp.conn-103 rcvAdv:vector ETV
attr interpolationmode sample-hold
attr recordingmode vector
vector 200 vehicularMecTest.car[10].tcp.conn-103 rcvWnd:vector ETV
attr interpolationmode sample-hold
attr recordingmode vector
vector 201 vehicularMecTest.car[10].tcp.conn-103 sndAck:vector ETV
attr interpolationmode sample-hold
attr recordingmode vector
vector 202 vehicularMecTest.car[11].tcp.conn-104 tcpRcvQueueBytes:vector ETV
attr interpolationmode sample-hold
attr recordingmode vector
vector 203 vehicularMecTest.car[11].tcp.conn-104 rcvAdv:vector ETV
attr interpolationmode sample-hold
attr recordingmode vector
vector 204 vehicularMecTest.car[11].tcp.conn-104 rcvWnd:vector ETV
attr interpolationmode sample-hold
attr recordingmode vector
vector 205 vehicularMecTest.car[11].tcp.conn-104 sndAck:vector ETV
attr interpolationmode sample-hold
attr recordingmode vector
vector 206 vehicularMecTest.car[12].tcp.conn-105 tcpRcvQueueBytes:vector ETV
attr interpolationmode sample-hold
attr recordingmode vector
vector 207 vehicularMecTest.car[12].tcp.conn-105 rcvAdv:vector ETV
attr interpolationmode sample-hold
attr recordingmode vector
vector 208 vehicularMecTest.car[12].tcp.conn-105 rcvWnd:vector ETV
attr interpolationmode sample-hold
attr recordingmode vector
vector 209 vehicularMecTest.car[12].tcp.conn-105 sndAck:vector ETV
attr interpolationmode sample-hold
attr recordingmode vector
vector 210 vehicularMecTest.car[13].tcp.conn-106 tcpRcvQueueBytes:vector ETV
attr interpolationmode sample-hold
attr recordingmode vector
vector 211 vehicularMecTest.car[13].tcp.conn-106 rcvAdv:vector ETV
attr interpolationmode sample-hold
attr recordingmode vector
vector 212 vehicularMecTest.car[13].tcp.conn-106 rcvWnd:vector ETV
attr interpolationmode sample-hold
attr recordingmode vector
vector 213 vehicularMecTest.car[13].tcp.conn-106 sndAck:vector ETV
attr interpolationmode sample-hold
attr recordingmode vector
vector 214 vehicularMecTest.car[14].tcp.conn-107 tcpRcvQueueBytes:vector ETV
attr interpolationmode sample-hold
attr recordingmode vector
vector 215 vehicularMecTest.car[14].tcp.conn-107 rcvAdv:vector ETV
attr interpolationmode sample-hold
attr recordingmode vector
vector 216 vehicularMecTest.car[14].tcp.conn-107 rcvWnd:vector ETV
attr interpolationmode sample-hold
attr recordingmode vector
vector 217 vehicularMecTest.car[14].tcp.conn-107 sndAck:vector ETV
attr interpolationmode sample-hold
attr recordingmode vector
vector 218 vehicularMecTest.car[15].tcp.conn-108 tcpRcvQueueBytes:vector ETV
attr interpolationmode sample-hold
attr recordingmode vector
vector 219 vehicularMecTest.car[15].tcp.conn-108 rcvAdv:vector ETV
attr interpolationmode sample-hold
attr recordingmode vector
vector 220 vehicularMecTest.car[15].tcp.conn-108 rcvWnd:vector ETV
attr interpolationmode sample-hold
attr recordingmode vector
vector 221 vehicularMecTest.car[15].tcp.conn-108 sndAck:vector ETV
attr interpolationmode sample-hold
attr recordingmode vector
vector 222 vehicularMecTest.car[16].tcp.conn-109 tcpRcvQueueBytes:vector ETV
attr interpolationmode sample-hold
attr recordingmode vector
vector 223 vehicularMecTest.car[16].tcp.conn-109 rcvAdv:vector ETV
attr interpolationmode sample-hold
attr recordingmode vector
vector 224 vehicularMecTest.car[16].tcp.conn-109 rcvWnd:vector ETV
attr interpolationmode sample-hold
attr recordingmode vector
vector 225 vehicularMecTest.car[16].tcp.conn-109 sndAck:vector ETV
attr interpolationmode sample-hold
attr recordingmode vector
vector 226 vehicularMecTest.car[17].tcp.conn-110 tcpRcvQueueBytes:vector ETV
attr interpolationmode sample-hold
attr recordingmode vector
vector 227 vehicularMecTest.car[17].tcp.conn-110 rcvAdv:vector ETV
attr interpolationmode sample-hold
attr recordingmode vector
vector 228 vehicularMecTest.car[17].tcp.conn-110 rcvWnd:vector ETV
attr interpolationmode sample-hold
attr recordingmode vector
vector 229 vehicularMecTest.car[17].tcp.conn-110 sndAck:vector ETV
attr interpolationmode sample-hold
attr recordingmode vector
vector 230 vehicularMecTest.car[18].tcp.conn-111 tcpRcvQueueBytes:vector ETV
attr interpolationmode sample-hold
attr recordingmode vector
vector 231 vehicularMecTest.car[18].tcp.conn-111 rcvAdv:vector ETV
attr interpolationmode sample-hold
attr recordingmode vector
vector 232 vehicularMecTest.car[18].tcp.conn-111 rcvWnd:vector ETV
attr interpolationmode sample-hold
attr recordingmode vector
vector 233 vehicularMecTest.car[18].tcp.conn-111 sndAck:vector ETV
attr interpolationmode sample-hold
attr recordingmode vector
vector 234 vehicularMecTest.car[0].cellularNic.pdcpRrc receivedPacketFromUpperLayer:vector(packetBytes) ETV
attr interpolationmode none
attr recordingmode vector(packetBytes)
attr source receivedPacketFromUpperLayer
vector 235 vehicularMecTest.car[0].cellularNic.pdcpRrc sentPacketToLowerLayer:vector(packetBytes) ETV
attr interpolationmode none
attr recordingmode vector(packetBytes)
attr source sentPacketToLowerLayer
vector 236 vehicularMecTest.car[1].cellularNic.pdcpRrc receivedPacketFromUpperLayer:vector(packetBytes) ETV
attr interpolationmode none
attr recordingmode vector(packetBytes)
attr source receivedPacketFromUpperLayer
vector 237 vehicularMecTest.car[1].cellularNic.pdcpRrc sentPacketToLowerLayer:vector(packetBytes) ETV
attr interpolationmode none
attr recordingmode vector(packetBytes)
attr source sentPacketToLowerLayer
vector 238 vehicularMecTest.car[2].cellularNic.pdcpRrc receivedPacketFromUpperLayer:vector(packetBytes) ETV
attr interpolationmode none
attr recordingmode vector(packetBytes)
attr source receivedPacketFromUpperLayer
vector 239 vehicularMecTest.car[2].cellularNic.pdcpRrc sentPacketToLowerLayer:vector(packetBytes) ETV
attr interpolationmode none
attr recordingmode vector(packetBytes)
attr source sentPacketToLowerLayer
vector 240 vehicularMecTest.car[3].cellularNic.pdcpRrc receivedPacketFromUpperLayer:vector(packetBytes) ETV
attr interpolationmode none
attr recordingmode vector(packetBytes)
attr source receivedPacketFromUpperLayer
vector 241 vehicularMecTest.car[3].cellularNic.pdcpRrc sentPacketToLowerLayer:vector(packetBytes) ETV
attr interpolationmode none
attr recordingmode vector(packetBytes)
attr source sentPacketToLowerLayer
vector 242 vehicularMecTest.car[4].cellularNic.pdcpRrc receivedPacketFromUpperLayer:vector(packetBytes) ETV
attr interpolationmode none
attr recordingmode vector(packetBytes)
attr source receivedPacketFromUpperLayer
vector 243 vehicularMecTest.car[4].cellularNic.pdcpRrc sentPacketToLowerLayer:vector(packetBytes) ETV
attr interpolationmode none
attr recordingmode vector(packetBytes)
attr source sentPacketToLowerLayer
vector 244 vehicularMecTest.car[5].cellularNic.pdcpRrc receivedPacketFromUpperLayer:vector(packetBytes) ETV
attr interpolationmode none
attr recordingmode vector(packetBytes)
attr source receivedPacketFromUpperLayer
vector 245 vehicularMecTest.car[5].cellularNic.pdcpRrc sentPacketToLowerLayer:vector(packetBytes) ETV
attr interpolationmode none
attr recordingmode vector(packetBytes)
attr source sentPacketToLowerLayer
vector 246 vehicularMecTest.car[6].cellularNic.pdcpRrc receivedPacketFromUpperLayer:vector(packetBytes) ETV
attr interpolationmode none
attr recordingmode vector(packetBytes)
attr source receivedPacketFromUpperLayer
vector 247 vehicularMecTest.car[6].cellularNic.pdcpRrc sentPacketToLowerLayer:vector(packetBytes) ETV
attr interpolationmode none
attr recordingmode vector(packetBytes)
attr source sentPacketToLowerLayer
vector 248 vehicularMecTest.car[7].cellularNic.pdcpRrc receivedPacketFromUpperLayer:vector(packetBytes) ETV
attr interpolationmode none
attr recordingmode vector(packetBytes)
attr source receivedPacketFromUpperLayer
vector 249 vehicularMecTest.car[7].cellularNic.pdcpRrc sentPacketToLowerLayer:vector(packetBytes) ETV
attr interpolationmode none
attr recordingmode vector(packetBytes)
attr source sentPacketToLowerLayer
vector 250 vehicularMecTest.car[8].cellularNic.pdcpRrc receivedPacketFromUpperLayer:vector(packetBytes) ETV
attr interpolationmode none
attr recordingmode vector(packetBytes)
attr source receivedPacketFromUpperLayer
vector 251 vehicularMecTest.car[8].cellularNic.pdcpRrc sentPacketToLowerLayer:vector(packetBytes) ETV
attr interpolationmode none
attr recordingmode vector(packetBytes)
attr source sentPacketToLowerLayer
vector 252 vehicularMecTest.car[9].cellularNic.pdcpRrc receivedPacketFromUpperLayer:vector(packetBytes) ETV
attr interpolationmode none
attr recordingmode vector(packetBytes)
attr source receivedPacketFromUpperLayer
vector 253 vehicularMecTest.car[9].cellularNic.pdcpRrc sentPacketToLowerLayer:vector(packetBytes) ETV
attr interpolationmode none
attr recordingmode vector(packetBytes)
attr source sentPacketToLowerLayer
vector 254 vehicularMecTest.car[10].cellularNic.pdcpRrc receivedPacketFromUpperLayer:vector(packetBytes) ETV
attr interpolationmode none
attr recordingmode vector(packetBytes)
attr source receivedPacketFromUpperLayer
vector 255 vehicularMecTest.car[10].cellularNic.pdcpRrc sentPacketToLowerLayer:vector(packetBytes) ETV
attr interpolationmode none
attr recordingmode vector(packetBytes)
attr source sentPacketToLowerLayer
vector 256 vehicularMecTest.car[11].cellularNic.pdcpRrc receivedPacketFromUpperLayer:vector(packetBytes) ETV
attr interpolationmode none
attr recordingmode vector(packetBytes)
attr source receivedPacketFromUpperLayer
vector 257 vehicularMecTest.car[11].cellularNic.pdcpRrc sentPacketToLowerLayer:vector(packetBytes) ETV
attr interpolationmode none
attr recordingmode vector(packetBytes)
attr source sentPacketToLowerLayer
vector 258 vehicularMecTest.car[12].cellularNic.pdcpRrc receivedPacketFromUpperLayer:vector(packetBytes) ETV
attr interpolationmode none
attr recordingmode vector(packetBytes)
attr source receivedPacketFromUpperLayer
vector 259 vehicularMecTest.car[12].cellularNic.pdcpRrc sentPacketToLowerLayer:vector(packetBytes) ETV
attr interpolationmode none
attr recordingmode vector(packetBytes)
attr source sentPacketToLowerLayer
vector 260 vehicularMecTest.car[13].cellularNic.pdcpRrc receivedPacketFromUpperLayer:vector(packetBytes) ETV
attr interpolationmode none
attr recordingmode vector(packetBytes)
attr source receivedPacketFromUpperLayer
vector 261 vehicularMecTest.car[13].cellularNic.pdcpRrc sentPacketToLowerLayer:vector(packetBytes) ETV
attr interpolationmode none
attr recordingmode vector(packetBytes)
attr source sentPacketToLowerLayer
vector 262 vehicularMecTest.car[14].cellularNic.pdcpRrc receivedPacketFromUpperLayer:vector(packetBytes) ETV
attr interpolationmode none
attr recordingmode vector(packetBytes)
attr source receivedPacketFromUpperLayer
vector 263 vehicularMecTest.car[14].cellularNic.pdcpRrc sentPacketToLowerLayer:vector(packetBytes) ETV
attr interpolationmode none
attr recordingmode vector(packetBytes)
attr source sentPacketToLowerLayer
vector 264 vehicularMecTest.car[15].cellularNic.pdcpRrc receivedPacketFromUpperLayer:vector(packetBytes) ETV
attr interpolationmode none
attr recordingmode vector(packetBytes)
attr source receivedPacketFromUpperLayer
vector 265 vehicularMecTest.car[15].cellularNic.pdcpRrc sentPacketToLowerLayer:vector(packetBytes) ETV
attr interpolationmode none
attr recordingmode vector(packetBytes)
attr source sentPacketToLowerLayer
vector 266 vehicularMecTest.car[16].cellularNic.pdcpRrc receivedPacketFromUpperLayer:vector(packetBytes) ETV
attr interpolationmode none
attr recordingmode vector(packetBytes)
attr source receivedPacketFromUpperLayer
vector 267 vehicularMecTest.car[16].cellularNic.pdcpRrc sentPacketToLowerLayer:vector(packetBytes) ETV
attr interpolationmode none
attr recordingmode vector(packetBytes)
attr source sentPacketToLowerLayer
vector 268 vehicularMecTest.car[17].cellularNic.pdcpRrc receivedPacketFromUpperLayer:vector(packetBytes) ETV
attr interpolationmode none
attr recordingmode vector(packetBytes)
attr source receivedPacketFromUpperLayer
vector 269 vehicularMecTest.car[17].cellularNic.pdcpRrc sentPacketToLowerLayer:vector(packetBytes) ETV
attr interpolationmode none
attr recordingmode vector(packetBytes)
attr source sentPacketToLowerLayer
vector 270 vehicularMecTest.car[18].cellularNic.pdcpRrc receivedPacketFromUpperLayer:vector(packetBytes) ETV
attr interpolationmode none
attr recordingmode vector(packetBytes)
attr source receivedPacketFromUpperLayer
vector 271 vehicularMecTest.car[18].cellularNic.pdcpRrc sentPacketToLowerLayer:vector(packetBytes) ETV
attr interpolationmode none
attr recordingmode vector(packetBytes)
attr source sentPacketToLowerLayer
vector 272 vehicularMecTest.car[0].cellularNic.nrRlc.um receivedPacketFromUpperLayer:vector(packetBytes) ETV
attr interpolationmode none
attr recordingmode vector(packetBytes)
attr source receivedPacketFromUpperLayer
vector 273 vehicularMecTest.car[1].cellularNic.nrRlc.um receivedPacketFromUpperLayer:vector(packetBytes) ETV
attr interpolationmode none
attr recordingmode vector(packetBytes)
attr source receivedPacketFromUpperLayer
vector 274 vehicularMecTest.car[2].cellularNic.nrRlc.um receivedPacketFromUpperLayer:vector(packetBytes) ETV
attr interpolationmode none
attr recordingmode vector(packetBytes)
attr source receivedPacketFromUpperLayer
vector 275 vehicularMecTest.car[3].cellularNic.nrRlc.um receivedPacketFromUpperLayer:vector(packetBytes) ETV
attr interpolationmode none
attr recordingmode vector(packetBytes)
attr source receivedPacketFromUpperLayer
vector 276 vehicularMecTest.car[4].cellularNic.nrRlc.um receivedPacketFromUpperLayer:vector(packetBytes) ETV
attr interpolationmode none
attr recordingmode vector(packetBytes)
attr source receivedPacketFromUpperLayer
vector 277 vehicularMecTest.car[5].cellularNic.nrRlc.um receivedPacketFromUpperLayer:vector(packetBytes) ETV
attr interpolationmode none
attr recordingmode vector(packetBytes)
attr source receivedPacketFromUpperLayer
vector 278 vehicularMecTest.car[6].cellularNic.nrRlc.um receivedPacketFromUpperLayer:vector(packetBytes) ETV
attr interpolationmode none
attr recordingmode vector(packetBytes)
attr source receivedPacketFromUpperLayer
vector 279 vehicularMecTest.car[7].cellularNic.nrRlc.um receivedPacketFromUpperLayer:vector(packetBytes) ETV
attr interpolationmode none
attr recordingmode vector(packetBytes)
attr source receivedPacketFromUpperLayer
vector 280 vehicularMecTest.car[8].cellularNic.nrRlc.um receivedPacketFromUpperLayer:vector(packetBytes) ETV
attr interpolationmode none
attr recordingmode vector(packetBytes)
attr source receivedPacketFromUpperLayer
vector 281 vehicularMecTest.car[9].cellularNic.nrRlc.um receivedPacketFromUpperLayer:vector(packetBytes) ETV
attr interpolationmode none
attr recordingmode vector(packetBytes)
attr source receivedPacketFromUpperLayer
vector 282 vehicularMecTest.car[10].cellularNic.nrRlc.um receivedPacketFromUpperLayer:vector(packetBytes) ETV
attr interpolationmode none
attr recordingmode vector(packetBytes)
attr source receivedPacketFromUpperLayer
vector 283 vehicularMecTest.car[11].cellularNic.nrRlc.um receivedPacketFromUpperLayer:vector(packetBytes) ETV
attr interpolationmode none
attr recordingmode vector(packetBytes)
attr source receivedPacketFromUpperLayer
vector 284 vehicularMecTest.car[12].cellularNic.nrRlc.um receivedPacketFromUpperLayer:vector(packetBytes) ETV
attr interpolationmode none
attr recordingmode vector(packetBytes)
attr source receivedPacketFromUpperLayer
vector 285 vehicularMecTest.car[13].cellularNic.nrRlc.um receivedPacketFromUpperLayer:vector(packetBytes) ETV
attr interpolationmode none
attr recordingmode vector(packetBytes)
attr source receivedPacketFromUpperLayer
vector 286 vehicularMecTest.car[14].cellularNic.nrRlc.um receivedPacketFromUpperLayer:vector(packetBytes) ETV
attr interpolationmode none
attr recordingmode vector(packetBytes)
attr source receivedPacketFromUpperLayer
vector 287 vehicularMecTest.car[15].cellularNic.nrRlc.um receivedPacketFromUpperLayer:vector(packetBytes) ETV
attr interpolationmode none
attr recordingmode vector(packetBytes)
attr source receivedPacketFromUpperLayer
vector 288 vehicularMecTest.car[16].cellularNic.nrRlc.um receivedPacketFromUpperLayer:vector(packetBytes) ETV
attr interpolationmode none
attr recordingmode vector(packetBytes)
attr source receivedPacketFromUpperLayer
vector 289 vehicularMecTest.car[17].cellularNic.nrRlc.um receivedPacketFromUpperLayer:vector(packetBytes) ETV
attr interpolationmode none
attr recordingmode vector(packetBytes)
attr source receivedPacketFromUpperLayer
vector 290 vehicularMecTest.car[18].cellularNic.nrRlc.um receivedPacketFromUpperLayer:vector(packetBytes) ETV
attr interpolationmode none
attr recordingmode vector(packetBytes)
attr source receivedPacketFromUpperLayer
vector 291 vehicularMecTest.car[0].cellularNic.nrMac receivedPacketFromUpperLayer:vector(packetBytes) ETV
attr interpolationmode none
attr recordingmode vector(packetBytes)
attr source receivedPacketFromUpperLayer
vector 292 vehicularMecTest.car[1].cellularNic.nrMac receivedPacketFromUpperLayer:vector(packetBytes) ETV
attr interpolationmode none
attr recordingmode vector(packetBytes)
attr source receivedPacketFromUpperLayer
vector 293 vehicularMecTest.car[2].cellularNic.nrMac receivedPacketFromUpperLayer:vector(packetBytes) ETV
attr interpolationmode none
attr recordingmode vector(packetBytes)
attr source receivedPacketFromUpperLayer
vector 294 vehicularMecTest.car[3].cellularNic.nrMac receivedPacketFromUpperLayer:vector(packetBytes) ETV
attr interpolationmode none
attr recordingmode vector(packetBytes)
attr source receivedPacketFromUpperLayer
vector 295 vehicularMecTest.car[4].cellularNic.nrMac receivedPacketFromUpperLayer:vector(packetBytes) ETV
attr interpolationmode none
attr recordingmode vector(packetBytes)
attr source receivedPacketFromUpperLayer
vector 296 vehicularMecTest.car[5].cellularNic.nrMac receivedPacketFromUpperLayer:vector(packetBytes) ETV
attr interpolationmode none
attr recordingmode vector(packetBytes)
attr source receivedPacketFromUpperLayer
vector 297 vehicularMecTest.car[6].cellularNic.nrMac receivedPacketFromUpperLayer:vector(packetBytes) ETV
attr interpolationmode none
attr recordingmode vector(packetBytes)
attr source receivedPacketFromUpperLayer
vector 298 vehicularMecTest.car[7].cellularNic.nrMac receivedPacketFromUpperLayer:vector(packetBytes) ETV
attr interpolationmode none
attr recordingmode vector(packetBytes)
attr source receivedPacketFromUpperLayer
vector 299 vehicularMecTest.car[8].cellularNic.nrMac receivedPacketFromUpperLayer:vector(packetBytes) ETV
attr interpolationmode none
attr recordingmode vector(packetBytes)
attr source receivedPacketFromUpperLayer
vector 300 vehicularMecTest.car[9].cellularNic.nrMac receivedPacketFromUpperLayer:vector(packetBytes) ETV
attr interpolationmode none
attr recordingmode vector(packetBytes)
attr source receivedPacketFromUpperLayer
vector 301 vehicularMecTest.car[10].cellularNic.nrMac receivedPacketFromUpperLayer:vector(packetBytes) ETV
attr interpolationmode none
attr recordingmode vector(packetBytes)
attr source receivedPacketFromUpperLayer
vector 302 vehicularMecTest.car[11].cellularNic.nrMac receivedPacketFromUpperLayer:vector(packetBytes) ETV
attr interpolationmode none
attr recordingmode vector(packetBytes)
attr source receivedPacketFromUpperLayer
vector 303 vehicularMecTest.car[12].cellularNic.nrMac receivedPacketFromUpperLayer:vector(packetBytes) ETV
attr interpolationmode none
attr recordingmode vector(packetBytes)
attr source receivedPacketFromUpperLayer
vector 304 vehicularMecTest.car[13].cellularNic.nrMac receivedPacketFromUpperLayer:vector(packetBytes) ETV
attr interpolationmode none
attr recordingmode vector(packetBytes)
attr source receivedPacketFromUpperLayer
vector 305 vehicularMecTest.car[14].cellularNic.nrMac receivedPacketFromUpperLayer:vector(packetBytes) ETV
attr interpolationmode none
attr recordingmode vector(packetBytes)
attr source receivedPacketFromUpperLayer
vector 306 vehicularMecTest.car[15].cellularNic.nrMac receivedPacketFromUpperLayer:vector(packetBytes) ETV
attr interpolationmode none
attr recordingmode vector(packetBytes)
attr source receivedPacketFromUpperLayer
vector 307 vehicularMecTest.car[16].cellularNic.nrMac receivedPacketFromUpperLayer:vector(packetBytes) ETV
attr interpolationmode none
attr recordingmode vector(packetBytes)
attr source receivedPacketFromUpperLayer
vector 308 vehicularMecTest.car[17].cellularNic.nrMac receivedPacketFromUpperLayer:vector(packetBytes) ETV
attr interpolationmode none
attr recordingmode vector(packetBytes)
attr source receivedPacketFromUpperLayer
vector 309 vehicularMecTest.car[18].cellularNic.nrMac receivedPacketFromUpperLayer:vector(packetBytes) ETV
attr interpolationmode none
attr recordingmode vector(packetBytes)
attr source receivedPacketFromUpperLayer
vector 310 vehicularMecTest.car[0].cellularNic.nrMac sentPacketToLowerLayer:vector(packetBytes) ETV
attr interpolationmode none
attr recordingmode vector(packetBytes)
attr source sentPacketToLowerLayer
vector 311 vehicularMecTest.car[1].cellularNic.nrMac sentPacketToLowerLayer:vector(packetBytes) ETV
attr interpolationmode none
attr recordingmode vector(packetBytes)
attr source sentPacketToLowerLayer
vector 312 vehicularMecTest.car[2].cellularNic.nrMac sentPacketToLowerLayer:vector(packetBytes) ETV
attr interpolationmode none
attr recordingmode vector(packetBytes)
attr source sentPacketToLowerLayer
vector 313 vehicularMecTest.car[3].cellularNic.nrMac sentPacketToLowerLayer:vector(packetBytes) ETV
attr interpolationmode none
attr recordingmode vector(packetBytes)
attr source sentPacketToLowerLayer
vector 314 vehicularMecTest.car[4].cellularNic.nrMac sentPacketToLowerLayer:vector(packetBytes) ETV
attr interpolationmode none
attr recordingmode vector(packetBytes)
attr source sentPacketToLowerLayer
vector 315 vehicularMecTest.car[5].cellularNic.nrMac sentPacketToLowerLayer:vector(packetBytes) ETV
attr interpolationmode none
attr recordingmode vector(packetBytes)
attr source sentPacketToLowerLayer
vector 316 vehicularMecTest.car[6].cellularNic.nrMac sentPacketToLowerLayer:vector(packetBytes) ETV
attr interpolationmode none
attr recordingmode vector(packetBytes)
attr source sentPacketToLowerLayer
vector 317 vehicularMecTest.car[7].cellularNic.nrMac sentPacketToLowerLayer:vector(packetBytes) ETV
attr interpolationmode none
attr recordingmode vector(packetBytes)
attr source sentPacketToLowerLayer
vector 318 vehicularMecTest.car[8].cellularNic.nrMac sentPacketToLowerLayer:vector(packetBytes) ETV
attr interpolationmode none
attr recordingmode vector(packetBytes)
attr source sentPacketToLowerLayer
vector 319 vehicularMecTest.car[9].cellularNic.nrMac sentPacketToLowerLayer:vector(packetBytes) ETV
attr interpolationmode none
attr recordingmode vector(packetBytes)
attr source sentPacketToLowerLayer
vector 320 vehicularMecTest.car[10].cellularNic.nrMac sentPacketToLowerLayer:vector(packetBytes) ETV
attr interpolationmode none
attr recordingmode vector(packetBytes)
attr source sentPacketToLowerLayer
vector 321 vehicularMecTest.car[11].cellularNic.nrMac sentPacketToLowerLayer:vector(packetBytes) ETV
attr interpolationmode none
attr recordingmode vector(packetBytes)
attr source sentPacketToLowerLayer
vector 322 vehicularMecTest.car[12].cellularNic.nrMac sentPacketToLowerLayer:vector(packetBytes) ETV
attr interpolationmode none
attr recordingmode vector(packetBytes)
attr source sentPacketToLowerLayer
vector 323 vehicularMecTest.car[13].cellularNic.nrMac sentPacketToLowerLayer:vector(packetBytes) ETV
attr interpolationmode none
attr recordingmode vector(packetBytes)
attr source sentPacketToLowerLayer
vector 324 vehicularMecTest.car[14].cellularNic.nrMac sentPacketToLowerLayer:vector(packetBytes) ETV
attr interpolationmode none
attr recordingmode vector(packetBytes)
attr source sentPacketToLowerLayer
vector 325 vehicularMecTest.car[15].cellularNic.nrMac sentPacketToLowerLayer:vector(packetBytes) ETV
attr interpolationmode none
attr recordingmode vector(packetBytes)
attr source sentPacketToLowerLayer
vector 326 vehicularMecTest.car[16].cellularNic.nrMac sentPacketToLowerLayer:vector(packetBytes) ETV
attr interpolationmode none
attr recordingmode vector(packetBytes)
attr source sentPacketToLowerLayer
vector 327 vehicularMecTest.car[17].cellularNic.nrMac sentPacketToLowerLayer:vector(packetBytes) ETV
attr interpolationmode none
attr recordingmode vector(packetBytes)
attr source sentPacketToLowerLayer
vector 328 vehicularMecTest.car[18].cellularNic.nrMac sentPacketToLowerLayer:vector(packetBytes) ETV
attr interpolationmode none
attr recordingmode vector(packetBytes)
attr source sentPacketToLowerLayer
vector 329 vehicularMecTest.gNodeB1.cellularNic.mac receivedPacketFromLowerLayer:vector(packetBytes) ETV
attr interpolationmode none
attr recordingmode vector(packetBytes)
attr source receivedPacketFromLowerLayer
vector 330 vehicularMecTest.gNodeB1.cellularNic.mac sentPacketToLowerLayer:vector(packetBytes) ETV
attr interpolationmode none
attr recordingmode vector(packetBytes)
attr source sentPacketToLowerLayer
vector 331 vehicularMecTest.car[0].cellularNic.nrMac receivedPacketFromLowerLayer:vector(packetBytes) ETV
attr interpolationmode none
attr recordingmode vector(packetBytes)
attr source receivedPacketFromLowerLayer
vector 332 vehicularMecTest.car[1].cellularNic.nrMac receivedPacketFromLowerLayer:vector(packetBytes) ETV
attr interpolationmode none
attr recordingmode vector(packetBytes)
attr source receivedPacketFromLowerLayer
vector 333 vehicularMecTest.car[2].cellularNic.nrMac receivedPacketFromLowerLayer:vector(packetBytes) ETV
attr interpolationmode none
attr recordingmode vector(packetBytes)
attr source receivedPacketFromLowerLayer
vector 334 vehicularMecTest.car[3].cellularNic.nrMac receivedPacketFromLowerLayer:vector(packetBytes) ETV
attr interpolationmode none
attr recordingmode vector(packetBytes)
attr source receivedPacketFromLowerLayer
vector 335 vehicularMecTest.car[4].cellularNic.nrMac receivedPacketFromLowerLayer:vector(packetBytes) ETV
attr interpolationmode none
attr recordingmode vector(packetBytes)
attr source receivedPacketFromLowerLayer
vector 336 vehicularMecTest.car[5].cellularNic.nrMac receivedPacketFromLowerLayer:vector(packetBytes) ETV
attr interpolationmode none
attr recordingmode vector(packetBytes)
attr source receivedPacketFromLowerLayer
vector 337 vehicularMecTest.car[6].cellularNic.nrMac receivedPacketFromLowerLayer:vector(packetBytes) ETV
attr interpolationmode none
attr recordingmode vector(packetBytes)
attr source receivedPacketFromLowerLayer
vector 338 vehicularMecTest.car[7].cellularNic.nrMac receivedPacketFromLowerLayer:vector(packetBytes) ETV
attr interpolationmode none
attr recordingmode vector(packetBytes)
attr source receivedPacketFromLowerLayer
vector 339 vehicularMecTest.car[8].cellularNic.nrMac receivedPacketFromLowerLayer:vector(packetBytes) ETV
attr interpolationmode none
attr recordingmode vector(packetBytes)
attr source receivedPacketFromLowerLayer
vector 340 vehicularMecTest.car[9].cellularNic.nrMac receivedPacketFromLowerLayer:vector(packetBytes) ETV
attr interpolationmode none
attr recordingmode vector(packetBytes)
attr source receivedPacketFromLowerLayer
vector 341 vehicularMecTest.car[10].cellularNic.nrMac receivedPacketFromLowerLayer:vector(packetBytes) ETV
attr interpolationmode none
attr recordingmode vector(packetBytes)
attr source receivedPacketFromLowerLayer
vector 342 vehicularMecTest.car[11].cellularNic.nrMac receivedPacketFromLowerLayer:vector(packetBytes) ETV
attr interpolationmode none
attr recordingmode vector(packetBytes)
attr source receivedPacketFromLowerLayer
vector 343 vehicularMecTest.car[12].cellularNic.nrMac receivedPacketFromLowerLayer:vector(packetBytes) ETV
attr interpolationmode none
attr recordingmode vector(packetBytes)
attr source receivedPacketFromLowerLayer
vector 344 vehicularMecTest.car[13].cellularNic.nrMac receivedPacketFromLowerLayer:vector(packetBytes) ETV
attr interpolationmode none
attr recordingmode vector(packetBytes)
attr source receivedPacketFromLowerLayer
vector 345 vehicularMecTest.car[14].cellularNic.nrMac receivedPacketFromLowerLayer:vector(packetBytes) ETV
attr interpolationmode none
attr recordingmode vector(packetBytes)
attr source receivedPacketFromLowerLayer
vector 346 vehicularMecTest.car[15].cellularNic.nrMac receivedPacketFromLowerLayer:vector(packetBytes) ETV
attr interpolationmode none
attr recordingmode vector(packetBytes)
attr source receivedPacketFromLowerLayer
vector 347 vehicularMecTest.car[16].cellularNic.nrMac receivedPacketFromLowerLayer:vector(packetBytes) ETV
attr interpolationmode none
attr recordingmode vector(packetBytes)
attr source receivedPacketFromLowerLayer
vector 348 vehicularMecTest.car[17].cellularNic.nrMac receivedPacketFromLowerLayer:vector(packetBytes) ETV
attr interpolationmode none
attr recordingmode vector(packetBytes)
attr source receivedPacketFromLowerLayer
vector 349 vehicularMecTest.car[18].cellularNic.nrMac receivedPacketFromLowerLayer:vector(packetBytes) ETV
attr interpolationmode none
attr recordingmode vector(packetBytes)
attr source receivedPacketFromLowerLayer
vector 350 vehicularMecTest.car[0].cellularNic.nrChannelModel[0] speed:vector ETV
attr recordingmode vector
attr source speed
attr title speed
attr unit dB
vector 351 vehicularMecTest.car[0].cellularNic.nrChannelModel[0] measuredSinrUl:vector ETV
attr recordingmode vector
attr source measuredSinrUl
attr title "SINR measured at feedback computation, UL"
attr unit dB
vector 352 vehicularMecTest.car[0].cellularNic.nrChannelModel[0] rcvdPWRUl:vector ETV
attr recordingmode vector
attr source rcvdPWRUl
attr title "Signal power measured at packet reception, UL"
attr unit dB
vector 353 vehicularMecTest.car[0].cellularNic.nrChannelModel[0] recvPowerUl:vector ETV
attr recordingmode vector
attr source recvPowerUl
attr title recvPowerUl
attr unit dB
vector 354 vehicularMecTest.car[0].cellularNic.nrChannelModel[0] antennaGainTxUl:vector ETV
attr recordingmode vector
attr source antennaGainTxUl
attr title antennaGainTxUl
attr unit dB
vector 355 vehicularMecTest.car[0].cellularNic.nrChannelModel[0] antennaGainRxUl:vector ETV
attr recordingmode vector
attr source antennaGainRxUl
attr title antennaGainRxUl
attr unit dB
vector 356 vehicularMecTest.car[0].cellularNic.nrChannelModel[0] noiseFigureUl:vector ETV
attr recordingmode vector
attr source noiseFigureUl
attr title noiseFigureUl
attr unit dB
vector 357 vehicularMecTest.car[0].cellularNic.nrChannelModel[0] cableLossUl:vector ETV
attr recordingmode vector
attr source cableLossUl
attr title cableLossUl
attr unit dB
vector 358 vehicularMecTest.car[0].cellularNic.nrChannelModel[0] attenuationUl:vector ETV
attr recordingmode vector
attr source attenuationUl
attr title attenuationUl
attr unit dB
vector 359 vehicularMecTest.car[0].cellularNic.nrChannelModel[0] thermalNoiseUl:vector ETV
attr recordingmode vector
attr source thermalNoiseUl
attr title thermalNoiseUl
attr unit dB
vector 360 vehicularMecTest.car[0].cellularNic.nrChannelModel[0] fadingAttenuationUl:vector ETV
attr recordingmode vector
attr source fadingAttenuationUl
attr title fadingAttenuationUl
attr unit dB
vector 361 vehicularMecTest.car[0].cellularNic.nrChannelModel[0] recvPowerTxUl:vector ETV
attr recordingmode vector
attr source recvPowerTxUl
attr title recvPowerTxUl
attr unit dB
vector 362 vehicularMecTest.car[0].cellularNic.nrChannelModel[0] attenuationPathLossUl:vector ETV
attr recordingmode vector
attr source attenuationPathLossUl
attr title attenuationPathLossUl
attr unit dB
vector 363 vehicularMecTest.car[0].cellularNic.nrChannelModel[0] attenuationShadowingUl:vector ETV
attr recordingmode vector
attr source attenuationShadowingUl
attr title attenuationShadowingUl
attr unit dB
vector 364 vehicularMecTest.car[0].cellularNic.nrChannelModel[0] measuredSinrDl:vector ETV
attr recordingmode vector
attr source measuredSinrDl
attr title "SINR measured at feedback computation, DL"
attr unit dB
vector 365 vehicularMecTest.car[0].cellularNic.nrChannelModel[0] rcvdPWRDl:vector ETV
attr recordingmode vector
attr source rcvdPWRDl
attr title "Signal power measured at packet reception, DL"
attr unit dB
vector 366 vehicularMecTest.car[0].cellularNic.nrChannelModel[0] recvPowerDl:vector ETV
attr recordingmode vector
attr source recvPowerDl
attr title recvPowerDl
attr unit dB
vector 367 vehicularMecTest.car[0].cellularNic.nrChannelModel[0] antennaGainTxDl:vector ETV
attr recordingmode vector
attr source antennaGainTxDl
attr title antennaGainTxDl
attr unit dB
vector 368 vehicularMecTest.car[0].cellularNic.nrChannelModel[0] antennaGainRxDl:vector ETV
attr recordingmode vector
attr source antennaGainRxDl
attr title antennaGainRxDl
attr unit dB
vector 369 vehicularMecTest.car[0].cellularNic.nrChannelModel[0] noiseFigureDl:vector ETV
attr recordingmode vector
attr source noiseFigureDl
attr title noiseFigureDl
attr unit dB
vector 370 vehicularMecTest.car[0].cellularNic.nrChannelModel[0] cableLossDl:vector ETV
attr recordingmode vector
attr source cableLossDl
attr title cableLossDl
attr unit dB
vector 371 vehicularMecTest.car[0].cellularNic.nrChannelModel[0] attenuationDl:vector ETV
attr recordingmode vector
attr source attenuationDl
attr title attenuationDl
attr unit dB
vector 372 vehicularMecTest.car[0].cellularNic.nrChannelModel[0] thermalNoiseDl:vector ETV
attr recordingmode vector
attr source thermalNoiseDl
attr title thermalNoiseDl
attr unit dB
vector 373 vehicularMecTest.car[0].cellularNic.nrChannelModel[0] fadingAttenuationDl:vector ETV
attr recordingmode vector
attr source fadingAttenuationDl
attr title fadingAttenuationDl
attr unit dB
vector 374 vehicularMecTest.car[0].cellularNic.nrChannelModel[0] recvPowerTxDl:vector ETV
attr recordingmode vector
attr source recvPowerTxDl
attr title recvPowerTxDl
attr unit dB
vector 375 vehicularMecTest.car[0].cellularNic.nrChannelModel[0] attenuationPathLossDl:vector ETV
attr recordingmode vector
attr source attenuationPathLossDl
attr title attenuationPathLossDl
attr unit dB
vector 376 vehicularMecTest.car[0].cellularNic.nrChannelModel[0] attenuationShadowingDl:vector ETV
attr recordingmode vector
attr source attenuationShadowingDl
attr title attenuationShadowingDl
attr unit dB
vector 377 vehicularMecTest.car[1].cellularNic.nrChannelModel[0] speed:vector ETV
attr recordingmode vector
attr source speed
attr title speed
attr unit dB
vector 378 vehicularMecTest.car[1].cellularNic.nrChannelModel[0] measuredSinrUl:vector ETV
attr recordingmode vector
attr source measuredSinrUl
attr title "SINR measured at feedback computation, UL"
attr unit dB
vector 379 vehicularMecTest.car[1].cellularNic.nrChannelModel[0] rcvdPWRUl:vector ETV
attr recordingmode vector
attr source rcvdPWRUl
attr title "Signal power measured at packet reception, UL"
attr unit dB
vector 380 vehicularMecTest.car[1].cellularNic.nrChannelModel[0] recvPowerUl:vector ETV
attr recordingmode vector
attr source recvPowerUl
attr title recvPowerUl
attr unit dB
vector 381 vehicularMecTest.car[1].cellularNic.nrChannelModel[0] antennaGainTxUl:vector ETV
attr recordingmode vector
attr source antennaGainTxUl
attr title antennaGainTxUl
attr unit dB
vector 382 vehicularMecTest.car[1].cellularNic.nrChannelModel[0] antennaGainRxUl:vector ETV
attr recordingmode vector
attr source antennaGainRxUl
attr title antennaGainRxUl
attr unit dB
vector 383 vehicularMecTest.car[1].cellularNic.nrChannelModel[0] noiseFigureUl:vector ETV
attr recordingmode vector
attr source noiseFigureUl
attr title noiseFigureUl
attr unit dB
vector 384 vehicularMecTest.car[1].cellularNic.nrChannelModel[0] cableLossUl:vector ETV
attr recordingmode vector
attr source cableLossUl
attr title cableLossUl
attr unit dB
vector 385 vehicularMecTest.car[1].cellularNic.nrChannelModel[0] attenuationUl:vector ETV
attr recordingmode vector
attr source attenuationUl
attr title attenuationUl
attr unit dB
vector 386 vehicularMecTest.car[1].cellularNic.nrChannelModel[0] thermalNoiseUl:vector ETV
attr recordingmode vector
attr source thermalNoiseUl
attr title thermalNoiseUl
attr unit dB
vector 387 vehicularMecTest.car[1].cellularNic.nrChannelModel[0] fadingAttenuationUl:vector ETV
attr recordingmode vector
attr source fadingAttenuationUl
attr title fadingAttenuationUl
attr unit dB
vector 388 vehicularMecTest.car[1].cellularNic.nrChannelModel[0] recvPowerTxUl:vector ETV
attr recordingmode vector
attr source recvPowerTxUl
attr title recvPowerTxUl
attr unit dB
vector 389 vehicularMecTest.car[1].cellularNic.nrChannelModel[0] attenuationPathLossUl:vector ETV
attr recordingmode vector
attr source attenuationPathLossUl
attr title attenuationPathLossUl
attr unit dB
vector 390 vehicularMecTest.car[1].cellularNic.nrChannelModel[0] attenuationShadowingUl:vector ETV
attr recordingmode vector
attr source attenuationShadowingUl
attr title attenuationShadowingUl
attr unit dB
vector 391 vehicularMecTest.car[1].cellularNic.nrChannelModel[0] measuredSinrDl:vector ETV
attr recordingmode vector
attr source measuredSinrDl
attr title "SINR measured at feedback computation, DL"
attr unit dB
vector 392 vehicularMecTest.car[1].cellularNic.nrChannelModel[0] rcvdPWRDl:vector ETV
attr recordingmode vector
attr source rcvdPWRDl
attr title "Signal power measured at packet reception, DL"
attr unit dB
vector 393 vehicularMecTest.car[1].cellularNic.nrChannelModel[0] recvPowerDl:vector ETV
attr recordingmode vector
attr source recvPowerDl
attr title recvPowerDl
attr unit dB
vector 394 vehicularMecTest.car[1].cellularNic.nrChannelModel[0] antennaGainTxDl:vector ETV
attr recordingmode vector
attr source antennaGainTxDl
attr title antennaGainTxDl
attr unit dB
vector 395 vehicularMecTest.car[1].cellularNic.nrChannelModel[0] antennaGainRxDl:vector ETV
attr recordingmode vector
attr source antennaGainRxDl
attr title antennaGainRxDl
attr unit dB
vector 396 vehicularMecTest.car[1].cellularNic.nrChannelModel[0] noiseFigureDl:vector ETV
attr recordingmode vector
attr source noiseFigureDl
attr title noiseFigureDl
attr unit dB
vector 397 vehicularMecTest.car[1].cellularNic.nrChannelModel[0] cableLossDl:vector ETV
attr recordingmode vector
attr source cableLossDl
attr title cableLossDl
attr unit dB
vector 398 vehicularMecTest.car[1].cellularNic.nrChannelModel[0] attenuationDl:vector ETV
attr recordingmode vector
attr source attenuationDl
attr title attenuationDl
attr unit dB
vector 399 vehicularMecTest.car[1].cellularNic.nrChannelModel[0] thermalNoiseDl:vector ETV
attr recordingmode vector
attr source thermalNoiseDl
attr title thermalNoiseDl
attr unit dB
vector 400 vehicularMecTest.car[1].cellularNic.nrChannelModel[0] fadingAttenuationDl:vector ETV
attr recordingmode vector
attr source fadingAttenuationDl
attr title fadingAttenuationDl
attr unit dB
vector 401 vehicularMecTest.car[1].cellularNic.nrChannelModel[0] recvPowerTxDl:vector ETV
attr recordingmode vector
attr source recvPowerTxDl
attr title recvPowerTxDl
attr unit dB
vector 402 vehicularMecTest.car[1].cellularNic.nrChannelModel[0] attenuationPathLossDl:vector ETV
attr recordingmode vector
attr source attenuationPathLossDl
attr title attenuationPathLossDl
attr unit dB
vector 403 vehicularMecTest.car[1].cellularNic.nrChannelModel[0] attenuationShadowingDl:vector ETV
attr recordingmode vector
attr source attenuationShadowingDl
attr title attenuationShadowingDl
attr unit dB
vector 404 vehicularMecTest.car[2].cellularNic.nrChannelModel[0] speed:vector ETV
attr recordingmode vector
attr source speed
attr title speed
attr unit dB
[...]
2523	99597030 42763 2405750 2588814 4.7415012844 4.9995041972 1497 0 8768 2244608 10878212096
2524	99639793 30804 2405752 2588819 4.74150254 4.9995046912 1039 555 1507 1070733 1338847431
2525	99670597 30804 2405752 2588819 4.74150254 4.9995046912 1039 548 1500 1063460 1323908080
2526	99701401 15847 2406209 2588831 4.7420010168 4.9995046912 520 2008 2008 1044160 2096673280
2527	99717248 781 2409401 2587460 4.748502984 4.9985046912 26 2000 2000 52000 104000000
2528	99718029 989 2409401 2587460 4.748502984 4.9985046912 26 0.0020016996 0.0020016996 0.0520441896 0.00010417683350464
2529	99719018 92027 2405755 2588824 4.741502984 4.9995046912 3352 9 9 30168 271512
2530	99811045 98731 2405767 2588836 4.741502984 4.9995046912 3352 232 232 777664 180418048
2531	99909776 1389 2410451 2589145 4.7490046912 5 34 2442105.2631579 7733333.3333333 116434779.93546 4.7619770494494e+14
2532	99911165 113948 2405767 2588853 4.741502984 4.9995048064 3352 0 2.88e-07 0.00033891840000001 5.641684992e-11
2533	100025113 99659 2405767 2588853 4.741502984 4.9995048064 3352 232 232 777664 180418048
2534	100124772 1400 2410464 2589145 4.7490047776 5 34 2442097.8597454 7732887.9189892 116435225.0689 4.7620369463914e+14
2535	100126172 96307 2405767 2588853 4.741502984 4.9995048064 3352 29 29 97208 2819032
2536	100222479 96307 2405767 2588853 4.741502984 4.9995048064 3352 36 36 120672 4344192
2537	100318786 170802 2405767 2588853 4.741502984 4.9995048064 6186 0 10 20702 115334
2538	100489588 183025 2405767 2588853 4.741502984 4.9995048064 6186 0 2320 4802864 6207737216
2539	100672613 96462 2405362 2588877 4.7410048564 4.9995048852 3354 36 36 120744 4346784
2540	100769075 96462 2405362 2588877 4.7410048564 4.9995048852 3354 36 36 120744 4346784
2541	100865537 96462 2405362 2588877 4.7410048564 4.9995048852 3354 36 36 120744 4346784
2542	100961999 96462 2405362 2588877 4.7410048564 4.9995048852 3354 29 29 97266 2820714
2543	101058461 96491 2405358 2588881 4.7410048276 4.9995048852 3355 45 45 150975 6793875
2544	101154952 99846 2405360 2588883 4.7410048276 4.9995048852 3355 520 520 1744600 907192000
2545	101254798 1409 2410485 2589145 4.7490048564 5 34 5473667.6166708 17332334.990838 260976172.43884 2.3923657879502e+15
2546	101256207 114410 2405355 2588903 4.7410048276 4.9995050004 3356 0 2.88e-07 0.00035187840000001 5.920929792e-11
2547	101370617 99860 2405355 2588903 4.7410048276 4.9995050004 3356 520 520 1745120 907462400
2548	101470477 1411 2410518 2589145 4.7490049428 5 34 5473651.0229159 17331336.763338 260977170.65246 2.3923959026829e+15
2549	101471888 96504 2405355 2588903 4.7410048276 4.9995050004 3356 65 65 218140 14179100
2550	101568392 96504 2405355 2588903 4.7410048276 4.9995050004 3356 72 72 241632 17397504
2551	101664896 172632 2405360 2588903 4.7410048276 4.9995050004 6216 0 5 10943 31981
2552	101837528 185405 2405355 2588903 4.7410048276 4.9995050004 6217 0 2600 5690360 8647662400
2553	102022933 96598 2405368 2588914 4.7410048776 4.999505108 3357 72 72 241704 17402688
2554	102119531 96598 2405368 2588914 4.7410048776 4.999505108 3357 72 72 241704 17402688
2555	102216129 96598 2405368 2588914 4.7410048776 4.999505108 3357 72 72 241704 17402688
2556	102312727 96598 2405368 2588914 4.7410048776 4.999505108 3357 65 65 218205 14183325
2557	102409325 780 2408635 2586684 4.748002984 4.998002984 26 2000 2000 52000 104000000
2558	102410105 988 2408635 2586684 4.748002984 4.998002984 26 0.0020016996 0.0020016996 0.0520441896 0.00010417683350464
2559	102411093 751 2412170 2582030 4.7510010168 4.990002984 25 2000 2000 50000 100000000
2560	102411844 951 2412170 2582030 4.7510010168 4.990002984 25 0.0020016996 0.0029997324 0.0510405228 0.00010516162539897
2561	102412795 805 2409606 2588270 4.7485046912 4.999002984 26 2000 2000 52000 104000000
2562	102413600 1013 2409606 2588270 4.7485046912 4.999002984 26 0.0020016996 0.0020016996 0.0520441896 0.00010417683350464
2563	102414613 806 2409687 2587661 4.7485063984 4.9985063984 26 2000 2000 52000 104000000
2564	102415419 1014 2409687 2587661 4.7485063984 4.9985063984 26 0.0020016996 0.0020016996 0.0520441896 0.00010417683350464
2565	102416433 42 2492243 2570551 4.863 4.973 2 0 0 0 0
2566	102416475 780 2410314 2588698 4.749002984 4.999502984 26 2000 2000 52000 104000000
2567	102417255 988 2410314 2588698 4.749002984 4.999502984 26 0.0020016996 0.0020016996 0.0520441896 0.00010417683350464
2568	102418243 751 2411171 2582182 4.7500042184 4.990003428 25 2000 2000 50000 100000000
2569	102418994 951 2411171 2582182 4.7500042184 4.990003428 25 0.0020016996 0.0025021436 0.0620138804 0.0001540677142639
2570	102419945 804 2407194 2585016 4.7440010168 4.9935010168 26 2000 2000 52000 104000000
2571	102420749 1012 2407194 2585016 4.7440010168 4.9935010168 26 0.0020016996 0.0024997324 0.063498944 0.00015573963151294
2572	102421761 831 2405754 2588370 4.741502984 4.9990046912 27 2000 2000 54000 108000000
2573	102422592 1044 2405754 2588370 4.741502984 4.9990046912 27 0.0020016996 0.002497022 0.0555318564 0.00011486858753282
2574	102423636 806 2408849 2586889 4.7480046912 4.9980046912 26 2000 2000 52000 104000000
2575	102424442 1014 2408849 2586889 4.7480046912 4.9980046912 26 0.0020016996 0.0020016996 0.0520441896 0.00010417683350464
2576	102425456 751 2412371 2583282 4.7510034568 4.991002984 25 2000 2000 50000 100000000
2577	102426207 951 2412371 2583282 4.7510034568 4.991002984 25 0.0020016996 0.0020016996 0.05004249 0.000100170032216
2578	102427158 751 2411580 2582658 4.750502984 4.990502984 25 2000 2000 50000 100000000
2579	102427909 951 2411580 2582658 4.750502984 4.990502984 25 0.0020016996 0.0020016996 0.05004249 0.000100170032216
2580	102428860 868 2407279 2585922 4.7440014896 4.9960010168 28 2000 2000 56000 112000000
2581	102429728 1091 2407279 2585922 4.7440014896 4.9960010168 28 0.0024997324 0.0090002052 0.0834905112 0.00032120375180208
2582	102430819 21 2469158 2469158 4.831 4.831 1 0 0 0 0
2583	102430840 525 2406155 2584302 4.742 4.992 25 0 1 4 4
2584	102431365 772 2412592 2583503 4.751005164 4.9910046912 25 2000 2000 50000 100000000
2585	102432137 972 2412592 2583503 4.751005164 4.9910046912 25 0.0020016996 0.0020016996 0.05004249 0.000100170032216
2586	102433109 425 2413863 2584997 4.753 4.9935 20 0 1 3 3
2587	102433534 790 2405875 2584018 4.7415046912 4.991502984 26 2000 2000 52000 104000000
2588	102434324 998 2405875 2584018 4.7415046912 4.991502984 26 0.0020016996 0.0024999924 0.0525424824 0.00010641999421606
2589	102435322 801 2410864 2585106 4.7495046912 4.9935034568 26 2000 2000 52000 104000000
2590	102436123 1009 2410864 2585106 4.7495046912 4.9935034568 26 0.0020016996 0.0020016996 0.0520441896 0.00010417683350464
2591	102437132 781 2406468 2587435 4.742502984 4.998502984 26 2000 2000 52000 104000000
2592	102437913 989 2406468 2587435 4.742502984 4.998502984 26 0.0020016996 0.0024997324 0.0525422224 0.00010641869428761
2593	102438902 788 2406216 2585603 4.742002984 4.9950010168 26 2000 2000 52000 104000000
2594	102439690 996 2406216 2585603 4.742002984 4.9950010168 26 0.0020016996 0.0025016996 0.056528452 0.0001243634193684
2597	102440686 782 2410759 2588818 4.749502984 4.9995046912 26 2000 2000 52000 104000000
2598	102441468 990 2410759 2588818 4.749502984 4.9995046912 26 0.0020016996 0.0020016996 0.0520441896 0.00010417683350464
2599	102442458 43 2456936 2492881 4.814 4.8645 2 0 0 0 0
2600	102442501 40 2467875 2539253 4.83 4.93 2 0 0 0 0
2605	102442541 84 2407565 2478962 4.745 4.845 4 0 1 1 1
2607	102442625 22 2456185 2456185 4.8125 4.8125 1 1 1 1 1
2608	102442647 22 2457265 2457265 4.8155 4.8155 1 0 0 0 0
2610	102442669 107 2456934 2585396 4.814 4.994 5 0 1 1 1
2615	102442776 63 2450776 2564606 4.806 4.966 3 0 1 1 1
2618	102442839 31 2588923 2588923 5 5 1 9.8510821920482 9.8510821920482 9.8510821920482 97.04382035449
2619	102442870 31 2588923 2588923 5 5 1 8.6106602326321 8.6106602326321 8.6106602326321 74.143469641832
2620	102442901 29 2588923 2588923 5 5 1 9.36503109885 9.36503109885 9.36503109885 87.703807482427
2621	102442930 30 2588923 2588923 5 5 1 7.856340424516 7.856340424516 7.856340424516 61.722084865884
2622	102442960 31 2588923 2588923 5 5 1 9.6034853531057 9.6034853531057 9.6034853531057 92.226930927316
2623	102442991 31 2588923 2588923 5 5 1 8.0990954743279 8.0990954743279 8.0990954743279 65.595347502279
2624	102443022 31 2588923 2588923 5 5 1 9.9926469679074 9.9926469679074 9.9926469679074 99.852993425229
2625	102443053 31 2588923 2588923 5 5 1 7.8578564812063 7.8578564812063 7.8578564812063 61.745908479235
2626	102443084 31 2588923 2588923 5 5 1 9.5044585068246 9.5044585068246 9.5044585068246 90.33473150795
2627	102443115 31 2588923 2588923 5 5 1 9.2003884181354 9.2003884181354 9.2003884181354 84.64714704456
2628	102443146 31 2588923 2588923 5 5 1 9.8286575496803 9.8286575496803 9.8286575496803 96.602509228888
2629	102443177 31 2588923 2588923 5 5 1 9.7593156148386 9.7593156148386 9.7593156148386 95.244241270032
2630	102443208 31 2588923 2588923 5 5 1 10.267226193067 10.267226193067 10.267226193067 105.41593369961
2631	102443239 30 2588923 2588923 5 5 1 9.794551909832 9.794551909832 9.794551909832 95.933247114394
2632	102443269 31 2588923 2588923 5 5 1 9.6113750008796 9.6113750008796 9.6113750008796 92.378529407533
2633	102443300 31 2588923 2588923 5 5 1 9.7803658948517 9.7803658948517 9.7803658948517 95.655557037178
2634	102443331 31 2588923 2588923 5 5 1 9.9055600365475 9.9055600365475 9.9055600365475 98.120119637648
2635	102443362 31 2588923 2588923 5 5 1 9.9678009332649 9.9678009332649 9.9678009332649 99.357055445197
2636	102443393 31 2588923 2588923 5 5 1 9.5817240994806 9.5817240994806 9.5817240994806 91.809436718567
2642	102443424 21 2586352 2586352 4.997 4.997 1 0 0 0 0
2647	102443445 21 2408608 2408608 4.748 4.748 1 0 0 0 0
2650	102443466 21 2517298 2517298 4.899 4.899 1 0 0 0 0
2656	102443487 5598 2406264 2584774 4.7425 4.9935 228 1653 1880 402762 712466750
2661	102449085 31 2588923 2588923 5 5 1 1614.2089756383 1614.2089756383 1614.2089756383 2605670.6170311
2662	102449116 31 2588923 2588923 5 5 1 833.70208270755 833.70208270755 833.70208270755 695059.1627109
2663	102449147 30 2588923 2588923 5 5 1 1.957219193026 1.957219193026 1.957219193026 3.8307069695492
2664	102449177 31 2588923 2588923 5 5 1 6.3201844213595 6.3201844213595 6.3201844213595 39.944731119996
2665	102449208 32 2588923 2588923 5 5 1 0.80668201938535 0.80668201938535 0.80668201938535 0.65073588039962
2666	102449240 31 2588923 2588923 5 5 1 3.2583567776566 3.2583567776566 3.2583567776566 10.616888890501
2667	102449271 31 2588923 2588923 5 5 1 1.3107192523342 1.3107192523342 1.3107192523342 1.7179849584396
2668	102449302 31 2588923 2588923 5 5 1 4.5959016912066 4.5959016912066 4.5959016912066 21.122312355236
2669	102449333 35 2588923 2588923 5 5 1 -0.0061768851033408 -0.0061768851033408 -0.0061768851033408 3.8153909579874e-05
2670	102449368 31 2588923 2588923 5 5 1 1.5220900994036 1.5220900994036 1.5220900994036 2.3167582707024
2671	102449399 31 2588923 2588923 5 5 1 1.9958457507053 1.9958457507053 1.9958457507053 3.9834002606086
2672	102449430 31 2588923 2588923 5 5 1 6.2743572852157 6.2743572852157 6.2743572852157 39.367559342539
2673	102449461 33 2588923 2588923 5 5 1 0.052426904937681 0.052426904937681 0.052426904937681 0.0027485803613446
2674	102449494 31 2588923 2588923 5 5 1 1.6521089775046 1.6521089775046 1.6521089775046 2.7294640735512
2675	102449525 30 2588923 2588923 5 5 1 1.727413257109 1.727413257109 1.727413257109 2.9839565608359
2676	102449555 31 2588923 2588923 5 5 1 5.8442253739536 5.8442253739536 5.8442253739536 34.154970221563
2677	102449586 32 2588923 2588923 5 5 1 -0.2218282078758 -0.2218282078758 -0.2218282078758 0.049207753809391
2678	102449618 21 2588923 2588923 5 5 1 0.973 0.973 0.973 0.946729
2679	102449639 31 2588923 2588923 5 5 1 1.8251574619557 1.8251574619557 1.8251574619557 3.3311997609325
2680	102449670 31 2588923 2588923 5 5 1 5.8284691283654 5.8284691283654 5.8284691283654 33.971052380309
2681	102449701 31 2588923 2588923 5 5 1 1.3569362482336 1.3569362482336 1.3569362482336 1.8412759817703
2682	102449732 31 2588923 2588923 5 5 1 4.6344962447666 4.6344962447666 4.6344962447666 21.478555442756
2683	102449763 31 2588923 2588923 5 5 1 1.8449957589037 1.8449957589037 1.8449957589037 3.4040093503725
2684	102449794 30 2588923 2588923 5 5 1 6.042099081097 6.042099081097 6.042099081097 36.506961305793
2685	102449824 31 2588923 2588923 5 5 1 1.9034171932912 1.9034171932912 1.9034171932912 3.6229970117167
2686	102449855 31 2588923 2588923 5 5 1 6.1434851152733 6.1434851152733 6.1434851152733 37.742409361584
2687	102449886 29 2588923 2588923 5 5 1 2.09441913174 2.09441913174 2.09441913174 4.3865914993985
2688	102449915 31 2588923 2588923 5 5 1 6.8877092215816 6.8877092215816 6.8877092215816 47.44053832106
2689	102449946 31 2588923 2588923 5 5 1 1.9978079777164 1.9978079777164 1.9978079777164 3.9912367158274
2690	102449977 31 2588923 2588923 5 5 1 6.3850903004931 6.3850903004931 6.3850903004931 40.769378145451
2691	102450008 31 2588923 2588923 5 5 1 1.9127070927224 1.9127070927224 1.9127070927224 3.6584484225506
2692	102450039 31 2588923 2588923 5 5 1 6.0861571006387 6.0861571006387 6.0861571006387 37.041308253654
2693	102450070 31 2588923 2588923 5 5 1 2.0377786112716 2.0377786112716 2.0377786112716 4.1525416685562
2694	102450101 31 2588923 2588923 5 5 1 6.4714126984126 6.4714126984126 6.4714126984126 41.879182313176
2695	102450132 31 2588923 2588923 5 5 1 2.0256656453037 2.0256656453037 2.0256656453037 4.1033213065635
2696	102450163 31 2588923 2588923 5 5 1 6.5133804504053 6.5133804504053 6.5133804504053 42.424124891722
2697	102450194 31 2588923 2588923 5 5 1 1.8968689005054 1.8968689005054 1.8968689005054 3.5981116257044
2698	102450225 31 2588923 2588923 5 5 1 6.2390705079311 6.2390705079311 6.2390705079311 38.926000802936
2699	102450256 31 2588923 2588923 5 5 1 1.8649522043834 1.8649522043834 1.8649522043834 3.4780467246347
2700	102450287 31 2588923 2588923 5 5 1 5.9600266491739 5.9600266491739 5.9600266491739 35.521917658863
2705	102450318 1222 2409990 2587965 4.749 4.999 52 548 1500 53248 66307904
2706	102451540 1222 2409990 2587965 4.749 4.999 52 549 1501 53300 66414452
2707	102452762 1222 2410014 2587989 4.749 4.999 52 549 1501 53300 66414452
2708	102453984 2421 2407000 2588037 4.744 4.999 103 143 1911 106665 162089031
2709	102456405 4487 2406257 2588058 4.7425 4.999 204 1 1913 53516 95674572
2710	102460892 5668 2405742 2589126 4.7415 5 258 1 94 7635 546813
2711	102466560 252 2420749 2562907 4.762 4.962 12 0 0 0 0
2712	102466812 210 2420749 2562907 4.762 4.962 6 49.582385006974 49.582385006974 297.49431004184 14750.477417879
2713	102467022 216 2420749 2562907 4.762 4.962 6 -153.81215237225 -153.81215237225 -922.87291423351 141949.06930431
2714	102467238 216 2420749 2562907 4.762 4.962 6 -47.797318311817 -47.797318311817 -286.7839098709 13707.501826807
2715	102467454 126 2420749 2562907 4.762 4.962 6 0 0 0 0
2716	102467580 132 2420749 2562907 4.762 4.962 6 18 18 108 1944
2717	102467712 126 2420749 2562907 4.762 4.962 6 5 5 30 150
2718	102467838 126 2420749 2562907 4.762 4.962 6 2 2 12 24
2719	102467964 210 2420749 2562907 4.762 4.962 6 89.797318311817 89.797318311817 538.7839098709 48381.350255963
2720	102468174 156 2420749 2562907 4.762 4.962 6 -104.5 -104.5 -627 65521.5
2721	102468330 216 2420749 2562907 4.762 4.962 6 -106.01483406043 -106.01483406043 -636.08900436261 67434.870245168
2722	102468546 132 2420749 2562907 4.762 4.962 6 26 26 156 4056
2723	102468678 210 2420749 2562907 4.762 4.962 6 96.636969272174 96.636969272174 579.82181563305 56032.222980667
2724	102468888 216 2420749 2562907 4.762 4.962 6 -6.8396509603568 -6.8396509603568 -41.037905762141 280.68495155706
2725	102469104 210 2420749 2562907 4.762 4.962 6 61.442395768985 61.442395768985 368.65437461391 22651.007986995
2726	102469314 216 2420749 2562907 4.762 4.962 6 -142.71088040229 -142.71088040229 -856.26528241377 122198.37231119
2727	102469530 216 2420749 2562907 4.762 4.962 6 -33.881006758132 -33.881006758132 -203.28604054879 6887.5357136675
2728	102469746 132 2420749 2562907 4.762 4.962 6 18 18 108 1944
2729	102469878 126 2420749 2562907 4.762 4.962 6 0 0 0 0
2730	102470004 126 2420749 2562907 4.762 4.962 6 7 7 42 294
2731	102470130 126 2420749 2562907 4.762 4.962 6 2 2 12 24
2732	102470256 210 2420749 2562907 4.762 4.962 6 95.881006758132 95.881006758132 575.28604054879 55159.004741718
2733	102470466 156 2420749 2562907 4.762 4.962 6 -104.5 -104.5 -627 65521.5
2734	102470622 216 2420749 2562907 4.762 4.962 6 -108.82987364416 -108.82987364416 -652.97924186498 71063.648384427
2735	102470838 132 2420749 2562907 4.762 4.962 6 46 46 276 12696
2736	102470970 210 2420749 2562907 4.762 4.962 6 96.636969272174 96.636969272174 579.82181563305 56032.222980667
2737	102471180 222 2420749 2562907 4.762 4.962 6 -0.75596251404241 -0.75596251404241 -4.5357750842545 3.4288759358239
2738	102471402 2887 2405741 2589123 4.7415 5 129 15 15 1935 29025
2739	102474289 4564 2405741 2589123 4.7415 5 129 160.37016694095 164.08655704672 20691.467925488 3318903.9751208
2740	102478853 4564 2405741 2589123 4.7415 5 129 55.287935628297 68.382473255463 8151.7642717989 518462.61072684
2741	102483417 3940 2406257 2585227 4.7425 4.994 178 1 92 7145 504919
2742	102487357 2869 2406260 2584770 4.7425 4.9935 127 32 92 7094 504868
2743	102490226 2742 2406260 2584770 4.7425 4.9935 127 0 0 0 0
2744	102492968 3250 2406260 2584770 4.7425 4.9935 127 0.002 0.002 0.254 0.000508
2745	102496218 8082 2406260 2584770 4.7425 4.9935 228 10443.858724302 11282.667467708 2477522.2949998 26934973069.025
2746	102504300 4914 2406260 2584770 4.7425 4.9935 228 0 0 0 0
2747	102509214 6006 2406260 2585848 4.7425 4.996 280 0 0 0 0
2748	102515220 7413 2406260 2584770 4.7425 4.9935 228 0.0024928968 0.002498336 0.568921496 0.0014196130238179
2749	102522633 5142 2406260 2584770 4.7425 4.9935 228 30 30 6840 205200
2750	102527775 2742 2406260 2584770 4.7425 4.9935 127 0 0 0 0
2751	102530517 5142 2406261 2584771 4.7425 4.9935 228 30 30 6840 205200
2752	102535659 5142 2406261 2584771 4.7425 4.9935 228 29 29 6612 191748
2753	102540801 4914 2406264 2584774 4.7425 4.9935 228 9 9 2052 18468
2754	102545715 2163 2406998 2585848 4.744 4.996 103 0 0 0 0
2755	102547878 1199 2406998 2585229 4.744 4.994 51 143 1911 53261 95461171
2756	102549077 1122 2407127 2585351 4.744 4.994 51 15 15 765 11475
2757	102550199 2740 2405664 2585366 4.7415 4.994 128 0 0 0 0
2758	102552939 2740 2405664 2585366 4.7415 4.994 128 0 0 0 0
2759	102555679 2740 2405664 2585366 4.7415 4.994 128 1 1 128 128
2760	102558419 1872 2405699 2585505 4.7415 4.9945 52 43.233669234961 50.084610965451 2409.5967302409 112124.77500661
2761	102560291 1300 2406613 2585833 4.743 4.996 52 0.002 0.002 0.104 0.000208
2762	102561591 1092 2406654 2585848 4.743 4.996 52 0 0 0 0
2763	102562683 1300 2406654 2585848 4.743 4.996 52 0.002 0.002 0.104 0.000208
2764	102563983 1816 2407753 2585848 4.746 4.996 52 65539.612305099 72628.102481986 3595414.970419 248824156692.18
2765	102565799 1300 2407753 2585848 4.746 4.996 52 0.007 0.007 0.364 0.002548
2766	102567099 1092 2406654 2585848 4.743 4.996 52 0 0 0 0
2772	102568191 1144 2406954 2586178 4.7435 4.9965 52 0 0 0 0
2773	102569335 1144 2406954 2586178 4.7435 4.9965 52 0 0 0 0
2774	102570479 1144 2406954 2586178 4.7435 4.9965 52 1 1 52 52
2783	102571623 624 2409931 2587905 4.749 4.999 26 2008 2008 52208 104833664
2821	102572247 806 2409050 2587090 4.7480063984 4.9980063984 26 2000 2000 52000 104000000
2822	102573053 1014 2409050 2587090 4.7480063984 4.9980063984 26 0.0020016996 0.0020016996 0.0520441896 0.00010417683350464
2825	102574067 31 2588923 2588923 5 5 1 4.7252682061787 4.7252682061787 4.7252682061787 22.328159620323
2832	102574098 31 2588923 2588923 5 5 1 1.8828794576321 1.8828794576321 1.8828794576321 3.5452350519729
2833	102574129 31 2588923 2588923 5 5 1 3.4918971298876 3.4918971298876 3.4918971298876 12.193345565717

