version 3
run test-2-20230911-13:37:30-5452
attr configname test
attr datetime 20230911-13:37:30
attr datetimef 20230911-133730
attr experiment test
attr inifile omnetpp.ini
attr iterationvars ""
attr iterationvarsd ""
attr iterationvarsf ""
attr measurement ""
attr network simu5g.simulations.NR.mec.vehicularMec.vehicularMecTest
attr processid 5452
attr repetition 2
attr replication #2
attr resultdir results
attr runnumber 2
attr seedset 2
config image-path ../../../../images:../../../../../inet/images:../../../../../veins/images:../../../../../veins_inet/images
config sim-time-limit 5s
config *.car[*].numApps 2
config *.car[*].app[0].typename DeviceApp
config *.car[*].app[0].localPort 4509
config *.car[*].app[0].UALCMPAddress "\"ualcmp\""
config *.car[*].app[0].UALCMPPort 1000
config *.car[*].app[0].appPackageSource "\"ApplicationDescriptors/PingPongApp.json\""
config *.car[*].app[1].typename UEPingPongApp
config *.car[*].app[1].name "\"test\""
config *.car[*].app[1].deviceAppAddress "\"car[\"+string(ancestorIndex(1))+\"]\""
config *.car[*].app[1].deviceAppPort 4509
config *.car[*].app[1].startTime 0.1s
config *.car[*].app[1].localPort 4009
config *.car[*].app[1].payloadSize 2000
config *.car[*].app[1].interReqTime 0.01
config *.car[*].app[1].mecAppName "\"Test_car[\"+string(ancestorIndex(1))+\"]\""
config **.ipv4.ip.crcMode "\"computed\""
config **.crcMode "\"computed\""
config **.radius 250
config cmdenv-output-file logs.txt
config cmdenv-express-mode false
config cmdenv-redirect-output true
config image-path ../../../images
config cmdenv-express-mode true
config cmdenv-autoflush true
config num-rngs 3
config repeat 5
config seed-set 2
config output-scalar-file-append false
config output-vector-file results/test/2.vec
config output-scalar-file results/test/2.sca
config **.routingRecorder.enabled false
config **.mecHost.**.vector-recording true
config **.mecHost.**.scalar-recording true
config **.vector-recording true
config **.scalar-recording true
config **.statistic-recording true
config **.bin-recording true
config debug-on-errors false
config sim-time-limit 20s
config *.playgroundSizeX 11000m
config *.playgroundSizeY 8000m
config *.playgroundSizeZ 500m
config *.configurator.config "xmldoc(\"./demo.xml\")"
config *.gNodeB*.cellInfo.broadcastMessageInterval 0.5s
config **.fbPeriod 40
config **.amcType "\"NRAmc\""
config **.pilotMode "\"ROBUST_CQI\""
config **.targetBler 0.01
config **.blerShift 5
config network simu5g.simulations.NR.mec.vehicularMec.vehicularMecTest
config *.carrierAggregation.numComponentCarriers 1
config *.carrierAggregation.componentCarrier[0].carrierFrequency "700 MHz"
config *.carrierAggregation.componentCarrier[0].numerologyIndex 1
config *.carrierAggregation.componentCarrier[0].numBands 50
config *.*.cellularNic.LteChannelModelType "\"NRChannelModel\""
config *.gNodeB1.cellularNic.numCarriers 1
config *.gNodeB1.cellularNic.channelModel[0].componentCarrierIndex index
config *.car[*].cellularNic.numCarriers 1
config *.car[*].cellularNic.nrChannelModel[0].componentCarrierIndex 0
config *.car[*].veinsmobilityType "\"org.car2x.veins.modules.mobility.traci.TraCIMobility\""
config *.car[*].veinsmobility.x 0
config *.car[*].veinsmobility.y 0
config *.car[*].veinsmobility.z 0
config *.veinsManager.host "\"localhost\""
config *.veinsManager.moduleType "\"simu5g.nodes.cars.NRCar\""
config *.veinsManager.moduleName "\"car\""
config *.veinsManager.launchConfig "xmldoc(\"erlangen.launchd.xml\")"
config *.veinsManager.updateInterval 1s
config *.manager.updateInterval 1s
config *.manager.host "\"localhost\""
config *.manager.autoShutdown true
config *.manager.launchConfig "xmldoc(\"erlangen.launchd.xml\")"
config *.manager.moduleType "\"simu5g.nodes.NR.NRCarTrackable\""
config *.manager.moduleName "\"car\""
config *.connectionManager.sendDirect false
config *.connectionManager.maxInterfDist 0m
config *.connectionManager.drawMaxIntfDist false
config *.gNodeB*.mobility.initFromDisplayString true
config **.car[*].masterId 0
config **.car[*].macCellId 0
config **.car[*].nrMasterId 1
config **.car[*].nrMacCellId 1
config **.gNodeB1.macCellId 1
config **.gNodeB1.macNodeId 1
config **.tcp.typename Tcp
config **.tcp.advertisedWindow 65535
config **.tcp.tcpAlgorithmClass "\"TcpReno\""
config **.tcp.sackSupport true
config **.hasRNISupport false
config *.car[*].numApps 4
config *.car[*].app[0].typename DeviceApp
config *.car[*].app[0].localPort 4500
config *.car[*].app[0].UALCMPAddress "\"ualcmp\""
config *.car[*].app[0].UALCMPPort 1000
config *.car[*].app[0].appPackageSource "\"ApplicationDescriptors/PingPongApp.json\""
config *.car[*].app[1].typename UEPingPongApp
config *.car[*].app[1].name "\"Platooning\""
config *.car[*].app[1].deviceAppAddress "\"car[\"+string(ancestorIndex(1))+\"]\""
config *.car[*].app[1].deviceAppPort 4500
config *.car[*].app[1].localPort 4000
config *.car[*].app[1].startTime 1s
config *.car[*].app[1].payloadSize 6500
config *.car[*].app[1].interReqTime 0.02
config *.car[*].app[1].test 1
config *.car[*].app[1].mecAppName "\"Platooning_car[\"+string(ancestorIndex(1))+\"]\""
config *.car[*].app[2].typename DeviceApp
config *.car[*].app[2].localPort 4502
config *.car[*].app[2].UALCMPAddress "\"ualcmp\""
config *.car[*].app[2].UALCMPPort 1000
config *.car[*].app[2].appPackageSource "\"ApplicationDescriptors/PingPongApp.json\""
config *.car[*].app[3].typename UEPingPongApp
config *.car[*].app[3].name "\"Remote_driving\""
config *.car[*].app[3].deviceAppAddress "\"car[\"+string(ancestorIndex(1))+\"]\""
config *.car[*].app[3].deviceAppPort 4502
config *.car[*].app[3].startTime 1s
config *.car[*].app[3].localPort 4002
config *.car[*].app[3].payloadSize 12000
config *.car[*].app[3].interReqTime 0.01
config *.car[*].app[3].test 1
config *.car[*].app[3].mecAppName "\"Remote_driving_car[\"+string(ancestorIndex(1))+\"]\""
config **.numCars 1
config *.mecHost.maxMECApps 100000
config *.mecHost.maxRam 320000GB
config *.mecHost.maxDisk 200000TB
config *.mecHost.maxCpuSpeed 10000000
config **.maxCpuSpeed 100000
config *.gNodeB*.mecHost "\"mecHost\""
config *.mecHost.bsList "\"gNodeB1\""
config *.mecHost.mecPlatformManager.mecOrchestrator "\"mecOrchestrator\""
config *.mecHost.mecPlatform.numMecServices 1
config *.mecHost.mecPlatform.mecService[0].typename LocationService
config *.mecHost.mecPlatform.mecService[0].localAddress "\"mecHost.virtualisationInfrastructure\""
config *.mecHost.mecPlatform.mecService[0].localPort 10020
config *.mecHost.mecPlatform.mecService[0].rng-0 0
config *.mecHost.mecPlatform.mecService[0].rng-1 1
config *.mecHost.mecPlatform.mecService[0].requestServiceTime 100us
config *.mecHost.mecPlatform.mecService[0].subscriptionServiceTime 11us
config *.mecHost.mecPlatform.serviceRegistry.localAddress "\"mecHost.virtualisationInfrastructure\""
config *.mecHost.mecPlatform.serviceRegistry.localPort 10021
config *.mecHost.mecPlatform.serviceRegistry.rng-0 0
config *.mecHost.mecPlatform.serviceRegistry.rng-1 1
config **.mecOrchestrator.mecHostList "\"mecHost\""
config *.mecOrchestrator.mecApplicationPackageList "\"PingPongApp\""

par vehicularMecTest.upf.pppg$o[0].channel typename "\"inet.node.ethernet.Eth10G\""
par vehicularMecTest.upf.pppg$o[0].channel disabled false
attr mutable ""
par vehicularMecTest.upf.pppg$o[0].channel delay 5e-08s
attr mutable ""
attr unit s
par vehicularMecTest.upf.pppg$o[0].channel datarate 1e+10bps
attr mutable ""
attr unit bps
par vehicularMecTest.upf.pppg$o[0].channel ber 0
attr mutable ""
par vehicularMecTest.upf.pppg$o[0].channel per 0
attr mutable ""
par vehicularMecTest.upf.pppg$o[0].channel length 10m
attr unit m
par vehicularMecTest.gNodeB1.ppp$o.channel typename "\"inet.node.ethernet.Eth10G\""
par vehicularMecTest.gNodeB1.ppp$o.channel disabled false
attr mutable ""
par vehicularMecTest.gNodeB1.ppp$o.channel delay 5e-08s
attr mutable ""
attr unit s
par vehicularMecTest.gNodeB1.ppp$o.channel datarate 1e+10bps
attr mutable ""
attr unit bps
par vehicularMecTest.gNodeB1.ppp$o.channel ber 0
attr mutable ""
par vehicularMecTest.gNodeB1.ppp$o.channel per 0
attr mutable ""
par vehicularMecTest.gNodeB1.ppp$o.channel length 10m
attr unit m
par vehicularMecTest.ualcmp.ppp$o[0].channel typename "\"inet.node.ethernet.Eth10G\""
par vehicularMecTest.ualcmp.ppp$o[0].channel disabled false
attr mutable ""
par vehicularMecTest.ualcmp.ppp$o[0].channel delay 5e-08s
attr mutable ""
attr unit s
par vehicularMecTest.ualcmp.ppp$o[0].channel datarate 1e+10bps
attr mutable ""
attr unit bps
par vehicularMecTest.ualcmp.ppp$o[0].channel ber 0
attr mutable ""
par vehicularMecTest.ualcmp.ppp$o[0].channel per 0
attr mutable ""
par vehicularMecTest.ualcmp.ppp$o[0].channel length 10m
attr unit m
par vehicularMecTest.upf.filterGate$o.channel typename "\"inet.node.ethernet.Eth10G\""
par vehicularMecTest.upf.filterGate$o.channel disabled false
attr mutable ""
par vehicularMecTest.upf.filterGate$o.channel delay 5e-08s
attr mutable ""
attr unit s
par vehicularMecTest.upf.filterGate$o.channel datarate 1e+10bps
attr mutable ""
attr unit bps
par vehicularMecTest.upf.filterGate$o.channel ber 0
attr mutable ""
par vehicularMecTest.upf.filterGate$o.channel per 0
attr mutable ""
par vehicularMecTest.upf.filterGate$o.channel length 10m
attr unit m
par vehicularMecTest.mecHost.ppp$o[0].channel typename "\"inet.node.ethernet.Eth10G\""
par vehicularMecTest.mecHost.ppp$o[0].channel disabled false
attr mutable ""
par vehicularMecTest.mecHost.ppp$o[0].channel delay 5e-08s
attr mutable ""
attr unit s
par vehicularMecTest.mecHost.ppp$o[0].channel datarate 1e+10bps
attr mutable ""
attr unit bps
par vehicularMecTest.mecHost.ppp$o[0].channel ber 0
attr mutable ""
par vehicularMecTest.mecHost.ppp$o[0].channel per 0
attr mutable ""
par vehicularMecTest.mecHost.ppp$o[0].channel length 10m
attr unit m
par vehicularMecTest.gNodeB1.pppMEHost$o.channel typename "\"inet.node.ethernet.Eth10G\""
par vehicularMecTest.gNodeB1.pppMEHost$o.channel disabled false
attr mutable ""
par vehicularMecTest.gNodeB1.pppMEHost$o.channel delay 5e-08s
attr mutable ""
attr unit s
par vehicularMecTest.gNodeB1.pppMEHost$o.channel datarate 1e+10bps
attr mutable ""
attr unit bps
par vehicularMecTest.gNodeB1.pppMEHost$o.channel ber 0
attr mutable ""
par vehicularMecTest.gNodeB1.pppMEHost$o.channel per 0
attr mutable ""
par vehicularMecTest.gNodeB1.pppMEHost$o.channel length 10m
attr unit m
par vehicularMecTest.routingRecorder typename "\"inet.networklayer.ipv4.RoutingTableRecorder\""
par vehicularMecTest.routingRecorder enabled false
par vehicularMecTest.configurator typename "\"inet.networklayer.configurator.ipv4.Ipv4NetworkConfigurator\""
par vehicularMecTest.configurator minLinkWeight 0.001
par vehicularMecTest.configurator configureIsolatedNetworksSeparatly false
par vehicularMecTest.configurator config "<config>...</config> at /home/omnet/Documents/omnetpp/workspace11.0/simu5G/simulations/NR/mec/vehicularMec//./demo.xml:1"
par vehicularMecTest.configurator assignAddresses true
par vehicularMecTest.configurator assignUniqueAddresses true
par vehicularMecTest.configurator assignDisjunctSubnetAddresses true
par vehicularMecTest.configurator addStaticRoutes true
par vehicularMecTest.configurator addDefaultRoutes true
par vehicularMecTest.configurator addSubnetRoutes true
par vehicularMecTest.configurator addDirectRoutes true
par vehicularMecTest.configurator optimizeRoutes true
par vehicularMecTest.configurator dumpTopology false
par vehicularMecTest.configurator dumpLinks false
par vehicularMecTest.configurator dumpAddresses false
par vehicularMecTest.configurator dumpRoutes false
par vehicularMecTest.configurator dumpConfig "\"\""
par vehicularMecTest.channelControl typename "\"simu5g.world.radio.LteChannelControl\""
par vehicularMecTest.channelControl coreDebug false
par vehicularMecTest.channelControl pMax 20mW
attr unit mW
par vehicularMecTest.channelControl sat -110dBm
attr unit dBm
par vehicularMecTest.channelControl alpha 2
par vehicularMecTest.channelControl carrierFrequency 2.4e+09Hz
attr unit Hz
par vehicularMecTest.channelControl numChannels 1
par vehicularMecTest.channelControl propagationModel "\"FreeSpaceModel\""
attr enum FreeSpaceModel,TwoRayGroundModel,RiceModel,RayleighModel,NakagamiModel,LogNormalShadowingModel
par vehicularMecTest.binder typename "\"simu5g.common.binder.Binder\""
par vehicularMecTest.binder blerShift 5
par vehicularMecTest.binder maxDataRatePerRb 1.16Mbps
attr unit Mbps
par vehicularMecTest.binder printTrafficGeneratorConfig false
par vehicularMecTest.carrierAggregation.componentCarrier[0] typename "\"simu5g.common.carrierAggregation.ComponentCarrier\""
par vehicularMecTest.carrierAggregation.componentCarrier[0] carrierFrequency 0.7GHz
attr unit GHz
par vehicularMecTest.carrierAggregation.componentCarrier[0] numBands 50
par vehicularMecTest.carrierAggregation.componentCarrier[0] numerologyIndex 1
par vehicularMecTest.carrierAggregation.componentCarrier[0] useTdd false
par vehicularMecTest.carrierAggregation.componentCarrier[0] tddNumSymbolsDl 7
par vehicularMecTest.carrierAggregation.componentCarrier[0] tddNumSymbolsUl 7
par vehicularMecTest.carrierAggregation typename "\"simu5g.common.carrierAggregation.CarrierAggregation\""
par vehicularMecTest.carrierAggregation numComponentCarriers 1
par vehicularMecTest.manager typename "\"org.car2x.veins.subprojects.veins_inet.VeinsInetManager\""
par vehicularMecTest.manager connectAt 0s
attr unit s
par vehicularMecTest.manager firstStepAt -1s
attr unit s
par vehicularMecTest.manager updateInterval 1s
attr unit s
par vehicularMecTest.manager moduleType "\"simu5g.nodes.NR.NRCarTrackable\""
par vehicularMecTest.manager moduleName "\"car\""
par vehicularMecTest.manager moduleDisplayString "\"*='i=veins/node/car;is=vs'\""
par vehicularMecTest.manager trafficLightModuleType "\"\""
par vehicularMecTest.manager trafficLightModuleName "\"tls\""
par vehicularMecTest.manager trafficLightFilter "\"\""
par vehicularMecTest.manager trafficLightModuleDisplayString "\"i=misc/node2;is=vs;r=0,,#707070,1\""
par vehicularMecTest.manager host "\"localhost\""
par vehicularMecTest.manager port 9999
par vehicularMecTest.manager seed -1
par vehicularMecTest.manager autoShutdown true
par vehicularMecTest.manager margin 25
par vehicularMecTest.manager roiRoads "\"\""
par vehicularMecTest.manager roiRects "\"\""
par vehicularMecTest.manager penetrationRate 1
par vehicularMecTest.manager ignoreGuiCommands false
par vehicularMecTest.manager launchConfig "<launch>...</launch> at /home/omnet/Documents/omnetpp/workspace11.0/simu5G/simulations/NR/mec/vehicularMec//erlangen.launchd.xml:35"
scalar vehicularMecTest.manager roiArea 0
par vehicularMecTest.annotations typename "\"org.car2x.veins.modules.world.annotations.AnnotationManager\""
par vehicularMecTest.annotations draw false
par vehicularMecTest.annotations annotations "<annotations/> at content:1"
par vehicularMecTest.roadsCanvasVisualizer typename "\"org.car2x.veins.visualizer.roads.RoadsCanvasVisualizer\""
par vehicularMecTest.roadsCanvasVisualizer enabled true
par vehicularMecTest.roadsCanvasVisualizer lineZIndex -1
par vehicularMecTest.roadsCanvasVisualizer lineColor "\"firebrick4\""
par vehicularMecTest.roadsCanvasVisualizer lineWidth 1
par vehicularMecTest.roadsCanvasVisualizer lineWidthZoom false
par vehicularMecTest.upf.pppg$i[0].channel typename "\"ned.IdealChannel\""
par vehicularMecTest.upf.ppp[0].phys$o.channel typename "\"ned.IdealChannel\""
par vehicularMecTest.upf.interfaceTable typename "\"inet.networklayer.common.InterfaceTable\""
par vehicularMecTest.upf.interfaceTable displayAddresses false
par vehicularMecTest.upf.cb typename "\"inet.common.MessageDispatcher\""
par vehicularMecTest.upf.cb displayStringTextFormat "\"processed %p pk (%l)\""
par vehicularMecTest.upf.cb forwardServiceRegistration true
par vehicularMecTest.upf.cb forwardProtocolRegistration true
par vehicularMecTest.upf.bl typename "\"inet.common.MessageDispatcher\""
par vehicularMecTest.upf.bl displayStringTextFormat "\"processed %p pk (%l)\""
par vehicularMecTest.upf.bl forwardServiceRegistration true
par vehicularMecTest.upf.bl forwardProtocolRegistration true
par vehicularMecTest.upf.li typename "\"inet.common.MessageDispatcher\""
par vehicularMecTest.upf.li displayStringTextFormat "\"processed %p pk (%l)\""
par vehicularMecTest.upf.li forwardServiceRegistration true
par vehicularMecTest.upf.li forwardProtocolRegistration true
par vehicularMecTest.upf.lo[0].upperLayerIn.channel typename "\"ned.IdealChannel\""
par vehicularMecTest.upf.lo[0].lo.upperLayerOut.channel typename "\"ned.IdealChannel\""
par vehicularMecTest.upf.lo[0].lo typename "\"inet.linklayer.loopback.Loopback\""
par vehicularMecTest.upf.lo[0].lo interfaceTableModule "\"vehicularMecTest.upf.interfaceTable\""
par vehicularMecTest.upf.lo[0].lo mtu 4470B
attr unit B
scalar vehicularMecTest.upf.lo[0].lo rcvdPkFromHl:count 0
attr interpolationmode none
attr recordingmode count
attr source packetReceivedFromUpper
attr title "packets received from higher layer, count"
scalar vehicularMecTest.upf.lo[0].lo rcvdPkFromHl:sum(packetBytes) 0
attr interpolationmode none
attr recordingmode sum(packetBytes)
attr source packetReceivedFromUpper
attr title "packets received from higher layer, sum(packetBytes)"
scalar vehicularMecTest.upf.lo[0].lo passedUpPk:count 0
attr interpolationmode none
attr recordingmode count
attr source packetSentToUpper
attr title "packets passed to higher layer, count"
scalar vehicularMecTest.upf.lo[0].lo passedUpPk:sum(packetBytes) 0
attr interpolationmode none
attr recordingmode sum(packetBytes)
attr source packetSentToUpper
attr title "packets passed to higher layer, sum(packetBytes)"
par vehicularMecTest.upf.lo[0] typename "\"inet.linklayer.loopback.LoopbackInterface\""
par vehicularMecTest.upf.lo[0] displayStringTextFormat "\"%a (%i)\\n%m\""
par vehicularMecTest.upf.lo[0] recordPcap false
par vehicularMecTest.upf.lo[0] numPcapRecorders 0
par vehicularMecTest.upf.lo[0] interfaceTableModule "\"vehicularMecTest.upf.interfaceTable\""
scalar vehicularMecTest.upf.lo[0] packetDropInterfaceDown:count 0
attr interpolationmode none
attr recordingmode count
attr source packetDropReasonIsInterfaceDown(packetDropped)
attr title "packet drops: interface down, count"
scalar vehicularMecTest.upf.lo[0] packetDropInterfaceDown:sum(packetBytes) 0
attr interpolationmode none
attr recordingmode sum(packetBytes)
attr source packetDropReasonIsInterfaceDown(packetDropped)
attr title "packet drops: interface down, sum(packetBytes)"
scalar vehicularMecTest.upf.lo[0] packetDropNoCarrier:count 0
attr interpolationmode none
attr recordingmode count
attr source packetDropReasonIsNoCarrier(packetDropped)
attr title "packet drops: no carrier, count"
scalar vehicularMecTest.upf.lo[0] packetDropNoCarrier:sum(packetBytes) 0
attr interpolationmode none
attr recordingmode sum(packetBytes)
attr source packetDropReasonIsNoCarrier(packetDropped)
attr title "packet drops: no carrier, sum(packetBytes)"
par vehicularMecTest.upf.ppp[0].phys$i.channel typename "\"ned.IdealChannel\""
par vehicularMecTest.upf.ppp[0].ppp.phys$o.channel typename "\"ned.IdealChannel\""
par vehicularMecTest.upf.ppp[0].ppp.upperLayerOut.channel typename "\"ned.IdealChannel\""
par vehicularMecTest.upf.ppp[0].upperLayerIn.channel typename "\"ned.IdealChannel\""
par vehicularMecTest.upf.ppp[0].queue typename "\"inet.queueing.queue.DropTailQueue\""
par vehicularMecTest.upf.ppp[0].queue displayStringTextFormat "\"contains %p pk (%l) pushed %u\\npulled %o removed %r dropped %d\""
par vehicularMecTest.upf.ppp[0].queue packetCapacity 10000
par vehicularMecTest.upf.ppp[0].queue dataCapacity -1b
attr unit b
par vehicularMecTest.upf.ppp[0].queue dropperClass "\"inet::queueing::PacketAtCollectionEndDropper\""
par vehicularMecTest.upf.ppp[0].queue comparatorClass "\"\""
par vehicularMecTest.upf.ppp[0].queue bufferModule "\"\""
scalar vehicularMecTest.upf.ppp[0].queue queueLength:last 0
attr autoWarmupFilter false
attr interpolationmode sample-hold
attr recordingmode last
attr source "warmup(atomic(constant0(packetPushEnded) + count(packetPushStarted) - count(packetPulled) - count(packetRemoved) - count(packetDropped)))"
attr title "queue length, last"
attr unit pk
scalar vehicularMecTest.upf.ppp[0].queue queueLength:max 1
attr autoWarmupFilter false
attr interpolationmode sample-hold
attr recordingmode max
attr source "warmup(atomic(constant0(packetPushEnded) + count(packetPushStarted) - count(packetPulled) - count(packetRemoved) - count(packetDropped)))"
attr title "queue length, max"
attr unit pk
scalar vehicularMecTest.upf.ppp[0].queue queueLength:timeavg 9.2598603791544e-08
attr autoWarmupFilter false
attr interpolationmode sample-hold
attr recordingmode timeavg
attr source "warmup(atomic(constant0(packetPushEnded) + count(packetPushStarted) - count(packetPulled) - count(packetRemoved) - count(packetDropped)))"
attr title "queue length, timeavg"
attr unit pk
scalar vehicularMecTest.upf.ppp[0].queue queueBitLength:last 0
attr autoWarmupFilter false
attr interpolationmode sample-hold
attr recordingmode last
attr source "warmup(atomic(constant0(packetPushEnded) + sum(packetLength(packetPushStarted)) - sum(packetLength(packetPulled)) - sum(packetLength(packetRemoved)) - sum(packetLength(packetDropped))))"
attr title "queue bit length, last"
attr unit b
scalar vehicularMecTest.upf.ppp[0].queue queueBitLength:max 3600
attr autoWarmupFilter false
attr interpolationmode sample-hold
attr recordingmode max
attr source "warmup(atomic(constant0(packetPushEnded) + sum(packetLength(packetPushStarted)) - sum(packetLength(packetPulled)) - sum(packetLength(packetRemoved)) - sum(packetLength(packetDropped))))"
attr title "queue bit length, max"
attr unit b
scalar vehicularMecTest.upf.ppp[0].queue queueBitLength:timeavg 0.00033300994222071
attr autoWarmupFilter false
attr interpolationmode sample-hold
attr recordingmode timeavg
attr source "warmup(atomic(constant0(packetPushEnded) + sum(packetLength(packetPushStarted)) - sum(packetLength(packetPulled)) - sum(packetLength(packetRemoved)) - sum(packetLength(packetDropped))))"
attr title "queue bit length, timeavg"
attr unit b
statistic vehicularMecTest.upf.ppp[0].queue queueingTime:histogram
field count 90
field mean 3.4724444444444e-10
field stddev 2.8237552107322e-09
field min 0
field max 2.64e-08
field sum 3.1252e-08
field sqrsum 7.20501904e-16
attr interpolationmode none
attr recordingmode histogram
attr source queueingTime(packetPulled)
attr title "queueing times"
attr unit s
bin	-inf	0
bin	-0.5	0
bin	-0.48	0
bin	-0.46	0
bin	-0.44	0
bin	-0.42	0
bin	-0.4	0
bin	-0.38	0
bin	-0.36	0
bin	-0.34	0
bin	-0.32	0
bin	-0.3	0
bin	-0.28	0
bin	-0.26	0
bin	-0.24	0
bin	-0.22	0
bin	-0.2	0
bin	-0.18	0
bin	-0.16	0
bin	-0.14	0
bin	-0.12	0
bin	-0.1	0
bin	-0.08	0
bin	-0.06	0
bin	-0.04	0
bin	-0.02	0
bin	0	90
bin	0.02	0
bin	0.04	0
bin	0.06	0
bin	0.08	0
bin	0.1	0
bin	0.12	0
bin	0.14	0
bin	0.16	0
bin	0.18	0
bin	0.2	0
bin	0.22	0
bin	0.24	0
bin	0.26	0
bin	0.28	0
bin	0.3	0
bin	0.32	0
bin	0.34	0
bin	0.36	0
bin	0.38	0
bin	0.4	0
bin	0.42	0
bin	0.44	0
bin	0.46	0
bin	0.48	0
bin	0.5	0
scalar vehicularMecTest.upf.ppp[0].queue outgoingPackets:count 90
attr recordingmode count
attr source packetPulled
attr title "outgoing packets, count"
attr unit pk
scalar vehicularMecTest.upf.ppp[0].queue outgoingPacketLengths:sum 123512
attr interpolationmode none
attr recordingmode sum
attr source packetLength(packetPulled)
attr title "outgoing packet lengths, sum"
attr unit b
statistic vehicularMecTest.upf.ppp[0].queue outgoingPacketLengths:histogram
field count 90
field mean 1372.3555555556
field stddev 1150.1834373592
field min 608
field max 3600
field sum 123512
field sqrsum 287242432
attr interpolationmode none
attr recordingmode histogram
attr source packetLength(packetPulled)
attr title "outgoing packet lengths"
attr unit b
bin	-inf	0
bin	0	0
bin	50	0
bin	100	0
bin	150	0
bin	200	0
bin	250	0
bin	300	0
bin	350	0
bin	400	0
bin	450	0
bin	500	0
bin	550	0
bin	600	36
bin	650	18
bin	700	0
bin	750	0
bin	800	0
bin	850	0
bin	900	0
bin	950	0
bin	1000	0
bin	1050	0
bin	1100	0
bin	1150	0
bin	1200	0
bin	1250	0
bin	1300	0
bin	1350	18
bin	1400	0
bin	1450	0
bin	1500	0
bin	1550	0
bin	1600	0
bin	1650	0
bin	1700	0
bin	1750	0
bin	1800	0
bin	1850	0
bin	1900	0
bin	1950	0
bin	2000	0
bin	2050	0
bin	2100	0
bin	2150	0
bin	2200	0
bin	2250	0
bin	2300	0
bin	2350	0
bin	2400	0
bin	2450	0
bin	2500	0
bin	2550	0
bin	2600	0
bin	2650	0
bin	2700	0
bin	2750	0
bin	2800	0
bin	2850	0
bin	2900	0
bin	2950	0
bin	3000	0
bin	3050	0
bin	3100	0
bin	3150	0
bin	3200	0
bin	3250	0
bin	3300	0
bin	3350	0
bin	3400	0
bin	3450	0
bin	3500	0
bin	3550	12
bin	3600	6
bin	3650	0
bin	3700	0
bin	3750	0
bin	3800	0
bin	3850	0
bin	3900	0
bin	3950	0
bin	4000	0
bin	4050	0
bin	4100	0
bin	4150	0
bin	4200	0
bin	4250	0
bin	4300	0
bin	4350	0
statistic vehicularMecTest.upf.ppp[0].queue flowQueueingTime:histogram
field count 0
field mean -nan
field stddev -nan
field min -nan
field max -nan
field sum 0
field sqrsum 0
attr interpolationmode none
attr recordingmode histogram
attr source queueingTime(demuxFlow(packetPulled))
attr title "flow queueing times"
attr unit s
bin	-inf	0
bin	0	0
bin	1	0
scalar vehicularMecTest.upf.ppp[0].queue incomingPackets:count 90
attr recordingmode count
attr source packetPushStarted
attr title "incoming packets, count"
attr unit pk
scalar vehicularMecTest.upf.ppp[0].queue incomingPacketLengths:sum 123512
attr interpolationmode none
attr recordingmode sum
attr source packetLength(packetPushStarted)
attr title "incoming packet lengths, sum"
attr unit b
statistic vehicularMecTest.upf.ppp[0].queue incomingPacketLengths:histogram
field count 90
field mean 1372.3555555556
field stddev 1150.1834373592
field min 608
field max 3600
field sum 123512
field sqrsum 287242432
attr interpolationmode none
attr recordingmode histogram
attr source packetLength(packetPushStarted)
attr title "incoming packet lengths"
attr unit b
bin	-inf	0
bin	0	0
bin	50	0
bin	100	0
bin	150	0
bin	200	0
bin	250	0
bin	300	0
bin	350	0
bin	400	0
bin	450	0
bin	500	0
bin	550	0
bin	600	36
bin	650	18
bin	700	0
bin	750	0
bin	800	0
bin	850	0
bin	900	0
bin	950	0
bin	1000	0
bin	1050	0
bin	1100	0
bin	1150	0
bin	1200	0
bin	1250	0
bin	1300	0
bin	1350	18
bin	1400	0
bin	1450	0
bin	1500	0
bin	1550	0
bin	1600	0
bin	1650	0
bin	1700	0
bin	1750	0
bin	1800	0
bin	1850	0
bin	1900	0
bin	1950	0
bin	2000	0
bin	2050	0
bin	2100	0
bin	2150	0
bin	2200	0
bin	2250	0
bin	2300	0
bin	2350	0
bin	2400	0
bin	2450	0
bin	2500	0
bin	2550	0
bin	2600	0
bin	2650	0
bin	2700	0
bin	2750	0
bin	2800	0
bin	2850	0
bin	2900	0
bin	2950	0
bin	3000	0
bin	3050	0
bin	3100	0
bin	3150	0
bin	3200	0
bin	3250	0
bin	3300	0
bin	3350	0
bin	3400	0
bin	3450	0
bin	3500	0
bin	3550	12
bin	3600	6
bin	3650	0
bin	3700	0
bin	3750	0
bin	3800	0
bin	3850	0
bin	3900	0
bin	3950	0
bin	4000	0
bin	4050	0
bin	4100	0
bin	4150	0
bin	4200	0
bin	4250	0
bin	4300	0
bin	4350	0
scalar vehicularMecTest.upf.ppp[0].queue droppedPacketsQueueOverflow:count 0
attr interpolationmode none
attr recordingmode count
attr source packetDropReasonIsQueueOverflow(packetDropped)
attr title "dropped packets: queue overflow, count"
attr unit pk
scalar vehicularMecTest.upf.ppp[0].queue droppedPacketLengthsQueueOverflow:sum 0
attr interpolationmode none
attr recordingmode sum
attr source packetLength(packetDropReasonIsQueueOverflow(packetDropped))
attr title "dropped packet lengths: queue overflow, sum"
attr unit b
par vehicularMecTest.upf.ppp[0].ppp typename "\"inet.linklayer.ppp.Ppp\""
par vehicularMecTest.upf.ppp[0].ppp interfaceTableModule "\"vehicularMecTest.upf.interfaceTable\""
par vehicularMecTest.upf.ppp[0].ppp displayStringTextFormat "\"rate: %b\\nsent: %s, rcvd: %r\\nqueue: %q, drop: %d\""
par vehicularMecTest.upf.ppp[0].ppp sendRawBytes false
par vehicularMecTest.upf.ppp[0].ppp mtu 4470B
attr unit B
par vehicularMecTest.upf.ppp[0].ppp stopOperationExtraTime -1s
attr unit s
par vehicularMecTest.upf.ppp[0].ppp stopOperationTimeout 2s
attr unit s
scalar vehicularMecTest.upf.ppp[0].ppp handleLowerPacket:count 0
attr interpolationmode none
attr recordingmode count
attr source handleLowerPacket
attr title "handleLowerPacket, count"
attr unit handleLowerPacket
scalar vehicularMecTest.upf.ppp[0].ppp handleLowerPacket:sum(packetBytes) 0
attr interpolationmode none
attr recordingmode sum(packetBytes)
attr source handleLowerPacket
attr title "handleLowerPacket, sum(packetBytes)"
attr unit handleLowerPacket
scalar vehicularMecTest.upf.ppp[0].ppp handleUpperPacket:count 0
attr interpolationmode none
attr recordingmode count
attr source handleUpperPacket
attr title "handleUpperPacket, count"
attr unit handleUpperPacket
scalar vehicularMecTest.upf.ppp[0].ppp handleUpperPacket:sum(packetBytes) 0
attr interpolationmode none
attr recordingmode sum(packetBytes)
attr source handleUpperPacket
attr title "handleUpperPacket, sum(packetBytes)"
attr unit handleUpperPacket
scalar vehicularMecTest.upf.ppp[0].ppp handleSelfMessage:count 0
attr interpolationmode none
attr recordingmode count
attr source handleSelfMessage
attr title "handleSelfMessage, count"
attr unit handleSelfMessage
scalar vehicularMecTest.upf.ppp[0].ppp handleSelfMessage:sum(packetBytes) 0
attr interpolationmode none
attr recordingmode sum(packetBytes)
attr source handleSelfMessage
attr title "handleSelfMessage, sum(packetBytes)"
attr unit handleSelfMessage
scalar vehicularMecTest.upf.ppp[0].ppp handleMessageWhenUp:count 0
attr interpolationmode none
attr recordingmode count
attr source handleMessageWhenUp
attr title "handleMessageWhenUp, count"
attr unit handleMessageWhenUp
scalar vehicularMecTest.upf.ppp[0].ppp handleMessageWhenUp:sum(packetBytes) 0
attr interpolationmode none
attr recordingmode sum(packetBytes)
attr source handleMessageWhenUp
attr title "handleMessageWhenUp, sum(packetBytes)"
attr unit handleMessageWhenUp
scalar vehicularMecTest.upf.ppp[0].ppp transmissionState:timeavg 9.561323912235e-06
attr interpolationmode sample-hold
attr recordingmode timeavg
attr source transmissionStateChanged
attr title "tx state, timeavg"
scalar vehicularMecTest.upf.ppp[0].ppp rxPkOk:count 108
attr interpolationmode none
attr recordingmode count
attr source rxPkOk
attr title "packets received OK, count"
scalar vehicularMecTest.upf.ppp[0].ppp rxPkOk:sum(packetBytes) 16692
attr interpolationmode none
attr recordingmode sum(packetBytes)
attr source rxPkOk
attr title "packets received OK, sum(packetBytes)"
scalar vehicularMecTest.upf.ppp[0].ppp txPk:count 90
attr interpolationmode none
attr recordingmode count
attr source packetSentToLower
attr title "packets transmitted, count"
scalar vehicularMecTest.upf.ppp[0].ppp txPk:sum(packetBytes) 16069
attr interpolationmode none
attr recordingmode sum(packetBytes)
attr source packetSentToLower
attr title "packets transmitted, sum(packetBytes)"
scalar vehicularMecTest.upf.ppp[0].ppp rcvdPkFromHl:count 0
attr interpolationmode none
attr recordingmode count
attr source packetReceivedFromUpper
attr title "packets received from higher layer, count"
scalar vehicularMecTest.upf.ppp[0].ppp rcvdPkFromHl:sum(packetBytes) 0
attr interpolationmode none
attr recordingmode sum(packetBytes)
attr source packetReceivedFromUpper
attr title "packets received from higher layer, sum(packetBytes)"
scalar vehicularMecTest.upf.ppp[0].ppp passedUpPk:count 108
attr interpolationmode none
attr recordingmode count
attr source packetSentToUpper
attr title "packets passed to higher layer, count"
scalar vehicularMecTest.upf.ppp[0].ppp passedUpPk:sum(packetBytes) 15936
attr interpolationmode none
attr recordingmode sum(packetBytes)
attr source packetSentToUpper
attr title "packets passed to higher layer, sum(packetBytes)"
scalar vehicularMecTest.upf.ppp[0].ppp packetDropIncorrectlyReceived:count 0
attr interpolationmode none
attr recordingmode count
attr source packetDropReasonIsIncorrectlyReceived(packetDropped)
attr title "packet drop: incorrectly received, count"
scalar vehicularMecTest.upf.ppp[0].ppp packetDropIncorrectlyReceived:sum(packetBytes) 0
attr interpolationmode none
attr recordingmode sum(packetBytes)
attr source packetDropReasonIsIncorrectlyReceived(packetDropped)
attr title "packet drop: incorrectly received, sum(packetBytes)"
scalar vehicularMecTest.upf.ppp[0].ppp packetDropInterfaceDown:count 0
attr interpolationmode none
attr recordingmode count
attr source packetDropReasonIsInterfaceDown(packetDropped)
attr title "packet drop: interface down, count"
scalar vehicularMecTest.upf.ppp[0].ppp packetDropInterfaceDown:sum(packetBytes) 0
attr interpolationmode none
attr recordingmode sum(packetBytes)
attr source packetDropReasonIsInterfaceDown(packetDropped)
attr title "packet drop: interface down, sum(packetBytes)"
par vehicularMecTest.upf.ppp[0] typename "\"inet.linklayer.ppp.PppInterface\""
par vehicularMecTest.upf.ppp[0] displayStringTextFormat "\"%a (%i)\\n%m\""
par vehicularMecTest.upf.ppp[0] recordPcap false
par vehicularMecTest.upf.ppp[0] numPcapRecorders 0
par vehicularMecTest.upf.ppp[0] interfaceTableModule "\"vehicularMecTest.upf.interfaceTable\""
scalar vehicularMecTest.upf.ppp[0] packetDropInterfaceDown:count 0
attr interpolationmode none
attr recordingmode count
attr source packetDropReasonIsInterfaceDown(packetDropped)
attr title "packet drops: interface down, count"
scalar vehicularMecTest.upf.ppp[0] packetDropInterfaceDown:sum(packetBytes) 0
attr interpolationmode none
attr recordingmode sum(packetBytes)
attr source packetDropReasonIsInterfaceDown(packetDropped)
attr title "packet drops: interface down, sum(packetBytes)"
scalar vehicularMecTest.upf.ppp[0] packetDropNoCarrier:count 0
attr interpolationmode none
attr recordingmode count
attr source packetDropReasonIsNoCarrier(packetDropped)
attr title "packet drops: no carrier, count"
scalar vehicularMecTest.upf.ppp[0] packetDropNoCarrier:sum(packetBytes) 0
attr interpolationmode none
attr recordingmode sum(packetBytes)
attr source packetDropReasonIsNoCarrier(packetDropped)
attr title "packet drops: no carrier, sum(packetBytes)"
par vehicularMecTest.upf.ipv4.transportIn.channel typename "\"ned.IdealChannel\""
par vehicularMecTest.upf.ipv4.up.out[0].channel typename "\"ned.IdealChannel\""
par vehicularMecTest.upf.ipv4.lp.out[2].channel typename "\"ned.IdealChannel\""
par vehicularMecTest.upf.ipv4.ifIn.channel typename "\"ned.IdealChannel\""
par vehicularMecTest.upf.ipv4.configurator typename "\"inet.networklayer.configurator.ipv4.Ipv4NodeConfigurator\""
par vehicularMecTest.upf.ipv4.configurator interfaceTableModule "\"vehicularMecTest.upf.interfaceTable\""
par vehicularMecTest.upf.ipv4.configurator routingTableModule "\"vehicularMecTest.upf.ipv4.routingTable\""
par vehicularMecTest.upf.ipv4.configurator networkConfiguratorModule "\"configurator\""
par vehicularMecTest.upf.ipv4.configurator configureRoutingTable true
par vehicularMecTest.upf.ipv4.routingTable typename "\"inet.networklayer.ipv4.Ipv4RoutingTable\""
par vehicularMecTest.upf.ipv4.routingTable interfaceTableModule "\"vehicularMecTest.upf.interfaceTable\""
par vehicularMecTest.upf.ipv4.routingTable routerId "\"auto\""
par vehicularMecTest.upf.ipv4.routingTable netmaskRoutes "\"*\""
par vehicularMecTest.upf.ipv4.routingTable forwarding true
par vehicularMecTest.upf.ipv4.routingTable multicastForwarding false
par vehicularMecTest.upf.ipv4.routingTable useAdminDist false
par vehicularMecTest.upf.ipv4.routingTable routingFile "\"\""
par vehicularMecTest.upf.ipv4.natTable typename "\"inet.networklayer.ipv4.Ipv4NatTable\""
par vehicularMecTest.upf.ipv4.natTable networkProtocolModule "\"^.ip\""
par vehicularMecTest.upf.ipv4.natTable config "<config/> at content:1"
par vehicularMecTest.upf.ipv4.up typename "\"inet.common.MessageDispatcher\""
par vehicularMecTest.upf.ipv4.up displayStringTextFormat "\"processed %p pk (%l)\""
par vehicularMecTest.upf.ipv4.up forwardServiceRegistration true
par vehicularMecTest.upf.ipv4.up forwardProtocolRegistration true
par vehicularMecTest.upf.ipv4.igmp typename "\"inet.networklayer.ipv4.Igmpv2\""
par vehicularMecTest.upf.ipv4.igmp interfaceTableModule "\"vehicularMecTest.upf.interfaceTable\""
par vehicularMecTest.upf.ipv4.igmp routingTableModule "\"vehicularMecTest.upf.ipv4.routingTable\""
par vehicularMecTest.upf.ipv4.igmp crcMode "\"computed\""
attr enum declared,computed
par vehicularMecTest.upf.ipv4.igmp enabled true
par vehicularMecTest.upf.ipv4.igmp robustnessVariable 2
par vehicularMecTest.upf.ipv4.igmp queryInterval 125s
attr unit s
par vehicularMecTest.upf.ipv4.igmp queryResponseInterval 10s
attr unit s
par vehicularMecTest.upf.ipv4.igmp groupMembershipInterval 260s
attr unit s
par vehicularMecTest.upf.ipv4.igmp otherQuerierPresentInterval 255s
attr unit s
par vehicularMecTest.upf.ipv4.igmp startupQueryInterval 31.25s
attr unit s
par vehicularMecTest.upf.ipv4.igmp startupQueryCount 2
par vehicularMecTest.upf.ipv4.igmp lastMemberQueryInterval 1s
attr unit s
par vehicularMecTest.upf.ipv4.igmp lastMemberQueryCount 2
par vehicularMecTest.upf.ipv4.igmp unsolicitedReportInterval 10s
attr unit s
par vehicularMecTest.upf.ipv4.icmp typename "\"inet.networklayer.ipv4.Icmp\""
par vehicularMecTest.upf.ipv4.icmp interfaceTableModule "\"vehicularMecTest.upf.interfaceTable\""
par vehicularMecTest.upf.ipv4.icmp routingTableModule "\"vehicularMecTest.upf.ipv4.routingTable\""
par vehicularMecTest.upf.ipv4.icmp crcMode "\"computed\""
attr enum declared,computed
attr mutable ""
par vehicularMecTest.upf.ipv4.icmp quoteLength 8B
attr mutable ""
attr unit B
par vehicularMecTest.upf.ipv4.mp typename "\"inet.common.MessageDispatcher\""
par vehicularMecTest.upf.ipv4.mp displayStringTextFormat "\"processed %p pk (%l)\""
par vehicularMecTest.upf.ipv4.mp forwardServiceRegistration true
par vehicularMecTest.upf.ipv4.mp forwardProtocolRegistration true
par vehicularMecTest.upf.ipv4.ip typename "\"inet.networklayer.ipv4.Ipv4\""
par vehicularMecTest.upf.ipv4.ip interfaceTableModule "\"vehicularMecTest.upf.interfaceTable\""
par vehicularMecTest.upf.ipv4.ip routingTableModule "\"vehicularMecTest.upf.ipv4.routingTable\""
par vehicularMecTest.upf.ipv4.ip arpModule "\"vehicularMecTest.upf.ipv4.arp\""
par vehicularMecTest.upf.ipv4.ip icmpModule "\"vehicularMecTest.upf.ipv4.icmp\""
par vehicularMecTest.upf.ipv4.ip crcMode "\"computed\""
attr enum declared,computed
par vehicularMecTest.upf.ipv4.ip timeToLive 32
par vehicularMecTest.upf.ipv4.ip multicastTimeToLive 32
par vehicularMecTest.upf.ipv4.ip fragmentTimeout 60s
attr unit s
par vehicularMecTest.upf.ipv4.ip limitedBroadcast false
par vehicularMecTest.upf.ipv4.ip directBroadcastInterfaces "\"\""
scalar vehicularMecTest.upf.ipv4.ip packetDropAddressResolutionFailed:count 0
attr interpolationmode none
attr recordingmode count
attr source packetDropReasonIsAddressResolutionFailed(packetDropped)
attr title "packet drop: address resolution failed, count"
scalar vehicularMecTest.upf.ipv4.ip packetDropAddressResolutionFailed:sum(packetBytes) 0
attr interpolationmode none
attr recordingmode sum(packetBytes)
attr source packetDropReasonIsAddressResolutionFailed(packetDropped)
attr title "packet drop: address resolution failed, sum(packetBytes)"
scalar vehicularMecTest.upf.ipv4.ip packetDropHopLimitReached:count 0
attr interpolationmode none
attr recordingmode count
attr source packetDropReasonIsHopLimitReached(packetDropped)
attr title "packet drop: hop limit reached, count"
scalar vehicularMecTest.upf.ipv4.ip packetDropHopLimitReached:sum(packetBytes) 0
attr interpolationmode none
attr recordingmode sum(packetBytes)
attr source packetDropReasonIsHopLimitReached(packetDropped)
attr title "packet drop: hop limit reached, sum(packetBytes)"
scalar vehicularMecTest.upf.ipv4.ip packetDropForwardingDisabled:count 0
attr interpolationmode none
attr recordingmode count
attr source packetDropReasonIsForwardingDisabled(packetDropped)
attr title "packet drop: forwarding disabled, count"
scalar vehicularMecTest.upf.ipv4.ip packetDropForwardingDisabled:sum(packetBytes) 0
attr interpolationmode none
attr recordingmode sum(packetBytes)
attr source packetDropReasonIsForwardingDisabled(packetDropped)
attr title "packet drop: forwarding disabled, sum(packetBytes)"
scalar vehicularMecTest.upf.ipv4.ip packetDropNoInterfaceFound:count 0
attr interpolationmode none
attr recordingmode count
attr source packetDropReasonIsNoInterfaceFound(packetDropped)
attr title "packet drop: no interface found, count"
scalar vehicularMecTest.upf.ipv4.ip packetDropNoInterfaceFound:sum(packetBytes) 0
attr interpolationmode none
attr recordingmode sum(packetBytes)
attr source packetDropReasonIsNoInterfaceFound(packetDropped)
attr title "packet drop: no interface found, sum(packetBytes)"
scalar vehicularMecTest.upf.ipv4.ip packetDropNoRouteFound:count 0
attr interpolationmode none
attr recordingmode count
attr source packetDropReasonIsNoRouteFound(packetDropped)
attr title "packet drop: no route found, count"
scalar vehicularMecTest.upf.ipv4.ip packetDropNoRouteFound:sum(packetBytes) 0
attr interpolationmode none
attr recordingmode sum(packetBytes)
attr source packetDropReasonIsNoRouteFound(packetDropped)
attr title "packet drop: no route found, sum(packetBytes)"
scalar vehicularMecTest.upf.ipv4.ip packetDropUndefined:count 0
attr interpolationmode none
attr recordingmode count
attr source packetDropReasonIsUndefined(packetDropped)
attr title "packet drop: undefined, count"
scalar vehicularMecTest.upf.ipv4.ip packetDropUndefined:sum(packetBytes) 0
attr interpolationmode none
attr recordingmode sum(packetBytes)
attr source packetDropReasonIsUndefined(packetDropped)
attr title "packet drop: undefined, sum(packetBytes)"
par vehicularMecTest.upf.ipv4.arp typename "\"inet.networklayer.arp.ipv4.Arp\""
par vehicularMecTest.upf.ipv4.arp interfaceTableModule "\"vehicularMecTest.upf.interfaceTable\""
par vehicularMecTest.upf.ipv4.arp routingTableModule "\"vehicularMecTest.upf.ipv4.routingTable\""
par vehicularMecTest.upf.ipv4.arp retryTimeout 1s
attr unit s
par vehicularMecTest.upf.ipv4.arp retryCount 3
par vehicularMecTest.upf.ipv4.arp cacheTimeout 120s
attr unit s
par vehicularMecTest.upf.ipv4.arp proxyArpInterfaces "\"*\""
scalar vehicularMecTest.upf.ipv4.arp arpResolutionFailed:count 0
attr recordingmode count
attr title "ARP failed resolutions, count"
scalar vehicularMecTest.upf.ipv4.arp arpResolutionCompleted:count 0
attr recordingmode count
attr title "ARP completed resolutions, count"
scalar vehicularMecTest.upf.ipv4.arp arpResolutionInitiated:count 0
attr recordingmode count
attr title "ARP initiated resolutions, count"
scalar vehicularMecTest.upf.ipv4.arp arpReplySent:count 0
attr recordingmode count
attr source arpReplySent
attr title "ARP replies sent, count"
scalar vehicularMecTest.upf.ipv4.arp arpReplySent:sum(packetBytes) 0
attr recordingmode sum(packetBytes)
attr source arpReplySent
attr title "ARP replies sent, sum(packetBytes)"
scalar vehicularMecTest.upf.ipv4.arp arpRequestSent:count 0
attr recordingmode count
attr source arpRequestSent
attr title "ARP request sent, count"
scalar vehicularMecTest.upf.ipv4.arp arpRequestSent:sum(packetBytes) 0
attr recordingmode sum(packetBytes)
attr source arpRequestSent
attr title "ARP request sent, sum(packetBytes)"
par vehicularMecTest.upf.ipv4.lp typename "\"inet.common.MessageDispatcher\""
par vehicularMecTest.upf.ipv4.lp displayStringTextFormat "\"processed %p pk (%l)\""
par vehicularMecTest.upf.ipv4.lp forwardServiceRegistration true
par vehicularMecTest.upf.ipv4.lp forwardProtocolRegistration true
par vehicularMecTest.upf.ipv4 typename "\"inet.networklayer.ipv4.Ipv4NetworkLayer\""
par vehicularMecTest.upf.ipv4 forwarding true
par vehicularMecTest.upf.ipv4 multicastForwarding false
par vehicularMecTest.upf.ipv4 interfaceTableModule "\"vehicularMecTest.upf.interfaceTable\""
par vehicularMecTest.upf.ipv4 displayStringTextFormat "\"%i\""
par vehicularMecTest.upf.nl typename "\"inet.common.MessageDispatcher\""
par vehicularMecTest.upf.nl displayStringTextFormat "\"processed %p pk (%l)\""
par vehicularMecTest.upf.nl forwardServiceRegistration true
par vehicularMecTest.upf.nl forwardProtocolRegistration true
par vehicularMecTest.upf.pppIf.phys$i.channel typename "\"ned.IdealChannel\""
par vehicularMecTest.upf.pppIf.ppp.phys$o.channel typename "\"ned.IdealChannel\""
par vehicularMecTest.upf.pppIf.ppp.upperLayerOut.channel typename "\"ned.IdealChannel\""
par vehicularMecTest.upf.pppIf.upperLayerIn.channel typename "\"ned.IdealChannel\""
par vehicularMecTest.upf.pppIf.queue typename "\"inet.queueing.queue.DropTailQueue\""
par vehicularMecTest.upf.pppIf.queue displayStringTextFormat "\"contains %p pk (%l) pushed %u\\npulled %o removed %r dropped %d\""
par vehicularMecTest.upf.pppIf.queue packetCapacity 10000
par vehicularMecTest.upf.pppIf.queue dataCapacity -1b
attr unit b
par vehicularMecTest.upf.pppIf.queue dropperClass "\"inet::queueing::PacketAtCollectionEndDropper\""
par vehicularMecTest.upf.pppIf.queue comparatorClass "\"\""
par vehicularMecTest.upf.pppIf.queue bufferModule "\"\""
scalar vehicularMecTest.upf.pppIf.queue queueLength:last 0
attr autoWarmupFilter false
attr interpolationmode sample-hold
attr recordingmode last
attr source "warmup(atomic(constant0(packetPushEnded) + count(packetPushStarted) - count(packetPulled) - count(packetRemoved) - count(packetDropped)))"
attr title "queue length, last"
attr unit pk
scalar vehicularMecTest.upf.pppIf.queue queueLength:max 0
attr autoWarmupFilter false
attr interpolationmode sample-hold
attr recordingmode max
attr source "warmup(atomic(constant0(packetPushEnded) + count(packetPushStarted) - count(packetPulled) - count(packetRemoved) - count(packetDropped)))"
attr title "queue length, max"
attr unit pk
scalar vehicularMecTest.upf.pppIf.queue queueLength:timeavg 0
attr autoWarmupFilter false
attr interpolationmode sample-hold
attr recordingmode timeavg
attr source "warmup(atomic(constant0(packetPushEnded) + count(packetPushStarted) - count(packetPulled) - count(packetRemoved) - count(packetDropped)))"
attr title "queue length, timeavg"
attr unit pk
scalar vehicularMecTest.upf.pppIf.queue queueBitLength:last 0
attr autoWarmupFilter false
attr interpolationmode sample-hold
attr recordingmode last
attr source "warmup(atomic(constant0(packetPushEnded) + sum(packetLength(packetPushStarted)) - sum(packetLength(packetPulled)) - sum(packetLength(packetRemoved)) - sum(packetLength(packetDropped))))"
attr title "queue bit length, last"
attr unit b
scalar vehicularMecTest.upf.pppIf.queue queueBitLength:max 0
attr autoWarmupFilter false
attr interpolationmode sample-hold
attr recordingmode max
attr source "warmup(atomic(constant0(packetPushEnded) + sum(packetLength(packetPushStarted)) - sum(packetLength(packetPulled)) - sum(packetLength(packetRemoved)) - sum(packetLength(packetDropped))))"
attr title "queue bit length, max"
attr unit b
scalar vehicularMecTest.upf.pppIf.queue queueBitLength:timeavg 0
attr autoWarmupFilter false
attr interpolationmode sample-hold
attr recordingmode timeavg
attr source "warmup(atomic(constant0(packetPushEnded) + sum(packetLength(packetPushStarted)) - sum(packetLength(packetPulled)) - sum(packetLength(packetRemoved)) - sum(packetLength(packetDropped))))"
attr title "queue bit length, timeavg"
attr unit b
statistic vehicularMecTest.upf.pppIf.queue queueingTime:histogram
field count 108
field mean 0
field stddev 0
field min 0
field max 0
field sum 0
field sqrsum 0
attr interpolationmode none
attr recordingmode histogram
attr source queueingTime(packetPulled)
attr title "queueing times"
attr unit s
bin	-inf	0
bin	-0.5	0
bin	-0.48	0
bin	-0.46	0
bin	-0.44	0
bin	-0.42	0
bin	-0.4	0
bin	-0.38	0
bin	-0.36	0
bin	-0.34	0
bin	-0.32	0
bin	-0.3	0
bin	-0.28	0
bin	-0.26	0
bin	-0.24	0
bin	-0.22	0
bin	-0.2	0
bin	-0.18	0
bin	-0.16	0
bin	-0.14	0
bin	-0.12	0
bin	-0.1	0
bin	-0.08	0
bin	-0.06	0
bin	-0.04	0
bin	-0.02	0
bin	0	108
bin	0.02	0
bin	0.04	0
bin	0.06	0
bin	0.08	0
bin	0.1	0
bin	0.12	0
bin	0.14	0
bin	0.16	0
bin	0.18	0
bin	0.2	0
bin	0.22	0
bin	0.24	0
bin	0.26	0
bin	0.28	0
bin	0.3	0
bin	0.32	0
bin	0.34	0
bin	0.36	0
bin	0.38	0
bin	0.4	0
bin	0.42	0
bin	0.44	0
bin	0.46	0
bin	0.48	0
bin	0.5	0
scalar vehicularMecTest.upf.pppIf.queue outgoingPackets:count 108
attr recordingmode count
attr source packetPulled
attr title "outgoing packets, count"
attr unit pk
scalar vehicularMecTest.upf.pppIf.queue outgoingPacketLengths:sum 96384
attr interpolationmode none
attr recordingmode sum
attr source packetLength(packetPulled)
attr title "outgoing packet lengths, sum"
attr unit b
statistic vehicularMecTest.upf.pppIf.queue outgoingPacketLengths:histogram
field count 108
field mean 892.44444444444
field stddev 846.76993017097
field min 320
field max 2536
field sum 96384
field sqrsum 162738432
attr interpolationmode none
attr recordingmode histogram
attr source packetLength(packetPulled)
attr title "outgoing packet lengths"
attr unit b
bin	-inf	0
bin	0	0
bin	50	0
bin	100	0
bin	150	0
bin	200	0
bin	250	0
bin	300	54
bin	350	18
bin	400	0
bin	450	0
bin	500	0
bin	550	0
bin	600	0
bin	650	0
bin	700	0
bin	750	0
bin	800	0
bin	850	0
bin	900	0
bin	950	0
bin	1000	0
bin	1050	0
bin	1100	0
bin	1150	0
bin	1200	0
bin	1250	0
bin	1300	0
bin	1350	0
bin	1400	0
bin	1450	18
bin	1500	0
bin	1550	0
bin	1600	0
bin	1650	0
bin	1700	0
bin	1750	0
bin	1800	0
bin	1850	0
bin	1900	0
bin	1950	0
bin	2000	0
bin	2050	0
bin	2100	0
bin	2150	0
bin	2200	0
bin	2250	0
bin	2300	0
bin	2350	0
bin	2400	0
bin	2450	0
bin	2500	18
bin	2550	0
bin	2600	0
bin	2650	0
bin	2700	0
bin	2750	0
bin	2800	0
bin	2850	0
bin	2900	0
bin	2950	0
bin	3000	0
bin	3050	0
bin	3100	0
statistic vehicularMecTest.upf.pppIf.queue flowQueueingTime:histogram
field count 0
field mean -nan
field stddev -nan
field min -nan
field max -nan
field sum 0
field sqrsum 0
attr interpolationmode none
attr recordingmode histogram
attr source queueingTime(demuxFlow(packetPulled))
attr title "flow queueing times"
attr unit s
bin	-inf	0
bin	0	0
bin	1	0
scalar vehicularMecTest.upf.pppIf.queue incomingPackets:count 108
attr recordingmode count
attr source packetPushStarted
attr title "incoming packets, count"
attr unit pk
scalar vehicularMecTest.upf.pppIf.queue incomingPacketLengths:sum 96384
attr interpolationmode none
attr recordingmode sum
attr source packetLength(packetPushStarted)
attr title "incoming packet lengths, sum"
attr unit b
statistic vehicularMecTest.upf.pppIf.queue incomingPacketLengths:histogram
field count 108
field mean 892.44444444444
field stddev 846.76993017097
field min 320
field max 2536
field sum 96384
field sqrsum 162738432
attr interpolationmode none
attr recordingmode histogram
attr source packetLength(packetPushStarted)
attr title "incoming packet lengths"
attr unit b
bin	-inf	0
bin	0	0
bin	50	0
bin	100	0
bin	150	0
bin	200	0
bin	250	0
bin	300	54
bin	350	18
bin	400	0
bin	450	0
bin	500	0
bin	550	0
bin	600	0
bin	650	0
bin	700	0
bin	750	0
bin	800	0
bin	850	0
bin	900	0
bin	950	0
bin	1000	0
bin	1050	0
bin	1100	0
bin	1150	0
bin	1200	0
bin	1250	0
bin	1300	0
bin	1350	0
bin	1400	0
bin	1450	18
bin	1500	0
bin	1550	0
bin	1600	0
bin	1650	0
bin	1700	0
bin	1750	0
bin	1800	0
bin	1850	0
bin	1900	0
bin	1950	0
bin	2000	0
bin	2050	0
bin	2100	0
bin	2150	0
bin	2200	0
bin	2250	0
bin	2300	0
bin	2350	0
bin	2400	0
bin	2450	0
bin	2500	18
bin	2550	0
bin	2600	0
bin	2650	0
bin	2700	0
bin	2750	0
bin	2800	0
bin	2850	0
bin	2900	0
bin	2950	0
bin	3000	0
bin	3050	0
bin	3100	0
scalar vehicularMecTest.upf.pppIf.queue droppedPacketsQueueOverflow:count 0
attr interpolationmode none
attr recordingmode count
attr source packetDropReasonIsQueueOverflow(packetDropped)
attr title "dropped packets: queue overflow, count"
attr unit pk
scalar vehicularMecTest.upf.pppIf.queue droppedPacketLengthsQueueOverflow:sum 0
attr interpolationmode none
attr recordingmode sum
attr source packetLength(packetDropReasonIsQueueOverflow(packetDropped))
attr title "dropped packet lengths: queue overflow, sum"
attr unit b
par vehicularMecTest.upf.pppIf.ppp typename "\"inet.linklayer.ppp.Ppp\""
par vehicularMecTest.upf.pppIf.ppp interfaceTableModule "\"vehicularMecTest.upf.interfaceTable\""
par vehicularMecTest.upf.pppIf.ppp displayStringTextFormat "\"rate: %b\\nsent: %s, rcvd: %r\\nqueue: %q, drop: %d\""
par vehicularMecTest.upf.pppIf.ppp sendRawBytes false
par vehicularMecTest.upf.pppIf.ppp mtu 4470B
attr unit B
par vehicularMecTest.upf.pppIf.ppp stopOperationExtraTime -1s
attr unit s
par vehicularMecTest.upf.pppIf.ppp stopOperationTimeout 2s
attr unit s
scalar vehicularMecTest.upf.pppIf.ppp handleLowerPacket:count 0
attr interpolationmode none
attr recordingmode count
attr source handleLowerPacket
attr title "handleLowerPacket, count"
attr unit handleLowerPacket
scalar vehicularMecTest.upf.pppIf.ppp handleLowerPacket:sum(packetBytes) 0
attr interpolationmode none
attr recordingmode sum(packetBytes)
attr source handleLowerPacket
attr title "handleLowerPacket, sum(packetBytes)"
attr unit handleLowerPacket
scalar vehicularMecTest.upf.pppIf.ppp handleUpperPacket:count 0
attr interpolationmode none
attr recordingmode count
attr source handleUpperPacket
attr title "handleUpperPacket, count"
attr unit handleUpperPacket
scalar vehicularMecTest.upf.pppIf.ppp handleUpperPacket:sum(packetBytes) 0
attr interpolationmode none
attr recordingmode sum(packetBytes)
attr source handleUpperPacket
attr title "handleUpperPacket, sum(packetBytes)"
attr unit handleUpperPacket
scalar vehicularMecTest.upf.pppIf.ppp handleSelfMessage:count 0
attr interpolationmode none
attr recordingmode count
attr source handleSelfMessage
attr title "handleSelfMessage, count"
attr unit handleSelfMessage
scalar vehicularMecTest.upf.pppIf.ppp handleSelfMessage:sum(packetBytes) 0
attr interpolationmode none
attr recordingmode sum(packetBytes)
attr source handleSelfMessage
attr title "handleSelfMessage, sum(packetBytes)"
attr unit handleSelfMessage
scalar vehicularMecTest.upf.pppIf.ppp handleMessageWhenUp:count 0
attr interpolationmode none
attr recordingmode count
attr source handleMessageWhenUp
attr title "handleMessageWhenUp, count"
attr unit handleMessageWhenUp
scalar vehicularMecTest.upf.pppIf.ppp handleMessageWhenUp:sum(packetBytes) 0
attr interpolationmode none
attr recordingmode sum(packetBytes)
attr source handleMessageWhenUp
attr title "handleMessageWhenUp, sum(packetBytes)"
attr unit handleMessageWhenUp
scalar vehicularMecTest.upf.pppIf.ppp transmissionState:timeavg 7.6185942729639e-06
attr interpolationmode sample-hold
attr recordingmode timeavg
attr source transmissionStateChanged
attr title "tx state, timeavg"
scalar vehicularMecTest.upf.pppIf.ppp rxPkOk:count 90
attr interpolationmode none
attr recordingmode count
attr source rxPkOk
attr title "packets received OK, count"
scalar vehicularMecTest.upf.pppIf.ppp rxPkOk:sum(packetBytes) 12829
attr interpolationmode none
attr recordingmode sum(packetBytes)
attr source rxPkOk
attr title "packets received OK, sum(packetBytes)"
scalar vehicularMecTest.upf.pppIf.ppp txPk:count 108
attr interpolationmode none
attr recordingmode count
attr source packetSentToLower
attr title "packets transmitted, count"
scalar vehicularMecTest.upf.pppIf.ppp txPk:sum(packetBytes) 12804
attr interpolationmode none
attr recordingmode sum(packetBytes)
attr source packetSentToLower
attr title "packets transmitted, sum(packetBytes)"
scalar vehicularMecTest.upf.pppIf.ppp rcvdPkFromHl:count 0
attr interpolationmode none
attr recordingmode count
attr source packetReceivedFromUpper
attr title "packets received from higher layer, count"
scalar vehicularMecTest.upf.pppIf.ppp rcvdPkFromHl:sum(packetBytes) 0
attr interpolationmode none
attr recordingmode sum(packetBytes)
attr source packetReceivedFromUpper
attr title "packets received from higher layer, sum(packetBytes)"
scalar vehicularMecTest.upf.pppIf.ppp passedUpPk:count 90
attr interpolationmode none
attr recordingmode count
attr source packetSentToUpper
attr title "packets passed to higher layer, count"
scalar vehicularMecTest.upf.pppIf.ppp passedUpPk:sum(packetBytes) 12199
attr interpolationmode none
attr recordingmode sum(packetBytes)
attr source packetSentToUpper
attr title "packets passed to higher layer, sum(packetBytes)"
scalar vehicularMecTest.upf.pppIf.ppp packetDropIncorrectlyReceived:count 0
attr interpolationmode none
attr recordingmode count
attr source packetDropReasonIsIncorrectlyReceived(packetDropped)
attr title "packet drop: incorrectly received, count"
scalar vehicularMecTest.upf.pppIf.ppp packetDropIncorrectlyReceived:sum(packetBytes) 0
attr interpolationmode none
attr recordingmode sum(packetBytes)
attr source packetDropReasonIsIncorrectlyReceived(packetDropped)
attr title "packet drop: incorrectly received, sum(packetBytes)"
scalar vehicularMecTest.upf.pppIf.ppp packetDropInterfaceDown:count 0
attr interpolationmode none
attr recordingmode count
attr source packetDropReasonIsInterfaceDown(packetDropped)
attr title "packet drop: interface down, count"
scalar vehicularMecTest.upf.pppIf.ppp packetDropInterfaceDown:sum(packetBytes) 0
attr interpolationmode none
attr recordingmode sum(packetBytes)
attr source packetDropReasonIsInterfaceDown(packetDropped)
attr title "packet drop: interface down, sum(packetBytes)"
par vehicularMecTest.upf.pppIf typename "\"inet.linklayer.ppp.PppInterface\""
par vehicularMecTest.upf.pppIf displayStringTextFormat "\"%a (%i)\\n%m\""
par vehicularMecTest.upf.pppIf recordPcap false
par vehicularMecTest.upf.pppIf numPcapRecorders 0
par vehicularMecTest.upf.pppIf interfaceTableModule "\"vehicularMecTest.upf.interfaceTable\""
scalar vehicularMecTest.upf.pppIf packetDropInterfaceDown:count 0
attr interpolationmode none
attr recordingmode count
attr source packetDropReasonIsInterfaceDown(packetDropped)
attr title "packet drops: interface down, count"
scalar vehicularMecTest.upf.pppIf packetDropInterfaceDown:sum(packetBytes) 0
attr interpolationmode none
attr recordingmode sum(packetBytes)
attr source packetDropReasonIsInterfaceDown(packetDropped)
attr title "packet drops: interface down, sum(packetBytes)"
scalar vehicularMecTest.upf.pppIf packetDropNoCarrier:count 0
attr interpolationmode none
attr recordingmode count
attr source packetDropReasonIsNoCarrier(packetDropped)
attr title "packet drops: no carrier, count"
scalar vehicularMecTest.upf.pppIf packetDropNoCarrier:sum(packetBytes) 0
attr interpolationmode none
attr recordingmode sum(packetBytes)
attr source packetDropReasonIsNoCarrier(packetDropped)
attr title "packet drops: no carrier, sum(packetBytes)"
par vehicularMecTest.upf.udp.crcInsertion typename "\"inet.transportlayer.udp.UdpCrcInsertionHook\""
par vehicularMecTest.upf.udp typename "\"inet.transportlayer.udp.Udp\""
par vehicularMecTest.upf.udp interfaceTableModule "\"vehicularMecTest.upf.interfaceTable\""
par vehicularMecTest.upf.udp icmpModule "\"^.ipv4.icmp\""
par vehicularMecTest.upf.udp icmpv6Module "\"^.ipv6.icmpv6\""
par vehicularMecTest.upf.udp crcMode "\"computed\""
attr enum disabled,declared,computed
par vehicularMecTest.upf.udp defaultMulticastLoop true
scalar vehicularMecTest.upf.udp packetReceived:count 108
attr interpolationmode none
attr recordingmode count
attr source packetReceived
attr title "packets received, count"
scalar vehicularMecTest.upf.udp packetReceived:sum(packetBytes) 13776
attr interpolationmode none
attr recordingmode sum(packetBytes)
attr source packetReceived
attr title "packets received, sum(packetBytes)"
scalar vehicularMecTest.upf.udp packetSent:count 90
attr interpolationmode none
attr recordingmode count
attr source packetSent
attr title "packets sent, count"
scalar vehicularMecTest.upf.udp packetSent:sum(packetBytes) 13639
attr interpolationmode none
attr recordingmode sum(packetBytes)
attr source packetSent
attr title "packets sent, sum(packetBytes)"
scalar vehicularMecTest.upf.udp passedUpPk:count 108
attr interpolationmode none
attr recordingmode count
attr source packetSentToUpper
attr title "packets passed up, count"
scalar vehicularMecTest.upf.udp droppedPkWrongPort:count 0
attr interpolationmode none
attr recordingmode count
attr source packetDropReasonIsNoPortFound(packetDropped)
attr title "packets dropped (wrong port), count"
scalar vehicularMecTest.upf.udp droppedPkBadChecksum:count 0
attr interpolationmode none
attr recordingmode count
attr source packetDropReasonIsIncorrectlyReceived(packetDropped)
attr title "packets dropped (checksum error), count"
par vehicularMecTest.upf.trafficFlowFilter typename "\"simu5g.corenetwork.trafficFlowFilter.TrafficFlowFilter\""
par vehicularMecTest.upf.trafficFlowFilter ownerType "\"UPF\""
par vehicularMecTest.upf.trafficFlowFilter fastForwarding true
par vehicularMecTest.upf.gtp_user typename "\"simu5g.corenetwork.gtp.GtpUser\""
par vehicularMecTest.upf.gtp_user interfaceTableModule "\"vehicularMecTest.upf.interfaceTable\""
par vehicularMecTest.upf.gtp_user ipOutInterface "\"\""
par vehicularMecTest.upf.gtp_user localPort 31
par vehicularMecTest.upf.gtp_user tunnelPeerPort 31
par vehicularMecTest.upf.gtp_user filter true
par vehicularMecTest.upf.tn typename "\"inet.common.MessageDispatcher\""
par vehicularMecTest.upf.tn displayStringTextFormat "\"processed %p pk (%l)\""
par vehicularMecTest.upf.tn forwardServiceRegistration true
par vehicularMecTest.upf.tn forwardProtocolRegistration true
par vehicularMecTest.upf.at typename "\"inet.common.MessageDispatcher\""
par vehicularMecTest.upf.at displayStringTextFormat "\"processed %p pk (%l)\""
par vehicularMecTest.upf.at forwardServiceRegistration true
par vehicularMecTest.upf.at forwardProtocolRegistration true
par vehicularMecTest.upf typename "\"simu5g.nodes.Upf\""
par vehicularMecTest.upf hasStatus false
par vehicularMecTest.upf osgModel "\"\""
par vehicularMecTest.upf osgModelColor "\"\""
par vehicularMecTest.upf canvasImage "\"\""
par vehicularMecTest.upf canvasImageColor "\"\""
par vehicularMecTest.upf recordPcap false
par vehicularMecTest.upf numPcapRecorders 0
par vehicularMecTest.upf numLoInterfaces 1
par vehicularMecTest.upf numWlanInterfaces 0
par vehicularMecTest.upf numEthInterfaces 0
par vehicularMecTest.upf numPppInterfaces 0
par vehicularMecTest.upf numTunInterfaces 0
par vehicularMecTest.upf numVirtInterfaces 0
par vehicularMecTest.upf fcsMode "\"declared\""
attr enum declared,computed
par vehicularMecTest.upf hasIpv4 true
par vehicularMecTest.upf hasIpv6 false
par vehicularMecTest.upf hasGn false
par vehicularMecTest.upf forwarding true
par vehicularMecTest.upf multicastForwarding false
par vehicularMecTest.upf nodeType "\"UPF\""
par vehicularMecTest.gNodeB1.interfaceTable typename "\"inet.networklayer.common.InterfaceTable\""
par vehicularMecTest.gNodeB1.interfaceTable displayAddresses false
par vehicularMecTest.gNodeB1.mobility typename "\"inet.mobility.static.StationaryMobility\""
par vehicularMecTest.gNodeB1.mobility subjectModule "\"^\""
par vehicularMecTest.gNodeB1.mobility coordinateSystemModule "\"\""
par vehicularMecTest.gNodeB1.mobility displayStringTextFormat "\"p: %p\\nv: %v\""
attr mutable ""
par vehicularMecTest.gNodeB1.mobility updateDisplayString true
par vehicularMecTest.gNodeB1.mobility constraintAreaMinX "-inf m"
attr unit m
par vehicularMecTest.gNodeB1.mobility constraintAreaMinY "-inf m"
attr unit m
par vehicularMecTest.gNodeB1.mobility constraintAreaMinZ "-inf m"
attr unit m
par vehicularMecTest.gNodeB1.mobility constraintAreaMaxX "inf m"
attr unit m
par vehicularMecTest.gNodeB1.mobility constraintAreaMaxY "inf m"
attr unit m
par vehicularMecTest.gNodeB1.mobility constraintAreaMaxZ "inf m"
attr unit m
par vehicularMecTest.gNodeB1.mobility initialX "nan m"
attr unit m
par vehicularMecTest.gNodeB1.mobility initialY "nan m"
attr unit m
par vehicularMecTest.gNodeB1.mobility initialZ 0m
attr unit m
par vehicularMecTest.gNodeB1.mobility initialLatitude "nan deg"
attr unit deg
par vehicularMecTest.gNodeB1.mobility initialLongitude "nan deg"
attr unit deg
par vehicularMecTest.gNodeB1.mobility initialAltitude 0m
attr unit m
par vehicularMecTest.gNodeB1.mobility initialHeading 0deg
attr unit deg
par vehicularMecTest.gNodeB1.mobility initialElevation 0deg
attr unit deg
par vehicularMecTest.gNodeB1.mobility initialBank 0deg
attr unit deg
par vehicularMecTest.gNodeB1.mobility initFromDisplayString true
par vehicularMecTest.gNodeB1.mobility updateFromDisplayString true
par vehicularMecTest.gNodeB1.cellInfo typename "\"simu5g.common.cellInfo.CellInfo\""
par vehicularMecTest.gNodeB1.cellInfo constraintAreaMinX "-inf m"
attr unit m
par vehicularMecTest.gNodeB1.cellInfo constraintAreaMinY "-inf m"
attr unit m
par vehicularMecTest.gNodeB1.cellInfo constraintAreaMaxX "inf m"
attr unit m
par vehicularMecTest.gNodeB1.cellInfo constraintAreaMaxY "inf m"
attr unit m
par vehicularMecTest.gNodeB1.cellInfo speed 0mps
attr unit mps
par vehicularMecTest.gNodeB1.cellInfo positionUpdateInterval 0.001s
attr unit s
par vehicularMecTest.gNodeB1.cellInfo broadcastMessageInterval 0.5s
attr unit s
par vehicularMecTest.gNodeB1.cellInfo microCell false
par vehicularMecTest.gNodeB1.cellInfo numRus 0
par vehicularMecTest.gNodeB1.cellInfo ruRange 0
par vehicularMecTest.gNodeB1.cellInfo ruStartingAngle 0deg
attr unit deg
par vehicularMecTest.gNodeB1.cellInfo ruTxPower "\"0;\""
par vehicularMecTest.gNodeB1.cellInfo antennaCws "\"1;\""
par vehicularMecTest.gNodeB1.cellInfo rbyDl 12
par vehicularMecTest.gNodeB1.cellInfo rbyUl 12
par vehicularMecTest.gNodeB1.cellInfo rbxDl 7
par vehicularMecTest.gNodeB1.cellInfo rbxUl 7
par vehicularMecTest.gNodeB1.cellInfo rbPilotDl 3
par vehicularMecTest.gNodeB1.cellInfo rbPilotUl 0
par vehicularMecTest.gNodeB1.cellInfo signalDl 1
par vehicularMecTest.gNodeB1.cellInfo signalUl 1
par vehicularMecTest.gNodeB1.cellInfo numPreferredBands 1
par vehicularMecTest.gNodeB1.cellularNic.ip2nic.upperLayerOut.channel typename "\"ned.DelayChannel\""
par vehicularMecTest.gNodeB1.cellularNic.ip2nic.upperLayerOut.channel disabled false
attr mutable ""
par vehicularMecTest.gNodeB1.cellularNic.ip2nic.upperLayerOut.channel delay 0s
attr mutable ""
attr unit s
par vehicularMecTest.gNodeB1.cellularNic.upperLayerIn.channel typename "\"ned.DelayChannel\""
par vehicularMecTest.gNodeB1.cellularNic.upperLayerIn.channel disabled false
attr mutable ""
par vehicularMecTest.gNodeB1.cellularNic.upperLayerIn.channel delay 0s
attr mutable ""
attr unit s
par vehicularMecTest.gNodeB1.cellularNic.ip2nic typename "\"simu5g.stack.ip2nic.IP2Nic\""
par vehicularMecTest.gNodeB1.cellularNic.ip2nic nodeType "\"GNODEB\""
par vehicularMecTest.gNodeB1.cellularNic.ip2nic interfaceTableModule "\"vehicularMecTest.gNodeB1.interfaceTable\""
par vehicularMecTest.gNodeB1.cellularNic.ip2nic interfaceName "\"cellular\""
par vehicularMecTest.gNodeB1.cellularNic.ip2nic routingTableModule "\"^.ipv4.routingTable\""
par "vehicularMecTest.gNodeB1.cellularNic.pdcpRrc.NRRxPdcpEntity Cid: 134348801" typename "\"simu5g.stack.pdcp_rrc.NRRxPdcpEntity\""
par "vehicularMecTest.gNodeB1.cellularNic.pdcpRrc.NRRxPdcpEntity Cid: 134348801" outOfOrderDelivery false
par "vehicularMecTest.gNodeB1.cellularNic.pdcpRrc.NRRxPdcpEntity Cid: 134348801" timeout 0.1s
attr unit s
par "vehicularMecTest.gNodeB1.cellularNic.pdcpRrc.NRRxPdcpEntity Cid: 134348801" rxWindowSize 4096
par "vehicularMecTest.gNodeB1.cellularNic.pdcpRrc.NRRxPdcpEntity Cid: 134414337" typename "\"simu5g.stack.pdcp_rrc.NRRxPdcpEntity\""
par "vehicularMecTest.gNodeB1.cellularNic.pdcpRrc.NRRxPdcpEntity Cid: 134414337" outOfOrderDelivery false
par "vehicularMecTest.gNodeB1.cellularNic.pdcpRrc.NRRxPdcpEntity Cid: 134414337" timeout 0.1s
attr unit s
par "vehicularMecTest.gNodeB1.cellularNic.pdcpRrc.NRRxPdcpEntity Cid: 134414337" rxWindowSize 4096
par "vehicularMecTest.gNodeB1.cellularNic.pdcpRrc.NRRxPdcpEntity Cid: 134479873" typename "\"simu5g.stack.pdcp_rrc.NRRxPdcpEntity\""
par "vehicularMecTest.gNodeB1.cellularNic.pdcpRrc.NRRxPdcpEntity Cid: 134479873" outOfOrderDelivery false
par "vehicularMecTest.gNodeB1.cellularNic.pdcpRrc.NRRxPdcpEntity Cid: 134479873" timeout 0.1s
attr unit s
par "vehicularMecTest.gNodeB1.cellularNic.pdcpRrc.NRRxPdcpEntity Cid: 134479873" rxWindowSize 4096
par "vehicularMecTest.gNodeB1.cellularNic.pdcpRrc.NRRxPdcpEntity Cid: 134545409" typename "\"simu5g.stack.pdcp_rrc.NRRxPdcpEntity\""
par "vehicularMecTest.gNodeB1.cellularNic.pdcpRrc.NRRxPdcpEntity Cid: 134545409" outOfOrderDelivery false
par "vehicularMecTest.gNodeB1.cellularNic.pdcpRrc.NRRxPdcpEntity Cid: 134545409" timeout 0.1s
attr unit s
par "vehicularMecTest.gNodeB1.cellularNic.pdcpRrc.NRRxPdcpEntity Cid: 134545409" rxWindowSize 4096
par "vehicularMecTest.gNodeB1.cellularNic.pdcpRrc.NRRxPdcpEntity Cid: 134610945" typename "\"simu5g.stack.pdcp_rrc.NRRxPdcpEntity\""
par "vehicularMecTest.gNodeB1.cellularNic.pdcpRrc.NRRxPdcpEntity Cid: 134610945" outOfOrderDelivery false
par "vehicularMecTest.gNodeB1.cellularNic.pdcpRrc.NRRxPdcpEntity Cid: 134610945" timeout 0.1s
attr unit s
par "vehicularMecTest.gNodeB1.cellularNic.pdcpRrc.NRRxPdcpEntity Cid: 134610945" rxWindowSize 4096
par "vehicularMecTest.gNodeB1.cellularNic.pdcpRrc.NRRxPdcpEntity Cid: 134676481" typename "\"simu5g.stack.pdcp_rrc.NRRxPdcpEntity\""
par "vehicularMecTest.gNodeB1.cellularNic.pdcpRrc.NRRxPdcpEntity Cid: 134676481" outOfOrderDelivery false
par "vehicularMecTest.gNodeB1.cellularNic.pdcpRrc.NRRxPdcpEntity Cid: 134676481" timeout 0.1s
attr unit s
par "vehicularMecTest.gNodeB1.cellularNic.pdcpRrc.NRRxPdcpEntity Cid: 134676481" rxWindowSize 4096
par "vehicularMecTest.gNodeB1.cellularNic.pdcpRrc.NRRxPdcpEntity Cid: 134742017" typename "\"simu5g.stack.pdcp_rrc.NRRxPdcpEntity\""
par "vehicularMecTest.gNodeB1.cellularNic.pdcpRrc.NRRxPdcpEntity Cid: 134742017" outOfOrderDelivery false
par "vehicularMecTest.gNodeB1.cellularNic.pdcpRrc.NRRxPdcpEntity Cid: 134742017" timeout 0.1s
attr unit s
par "vehicularMecTest.gNodeB1.cellularNic.pdcpRrc.NRRxPdcpEntity Cid: 134742017" rxWindowSize 4096
par "vehicularMecTest.gNodeB1.cellularNic.pdcpRrc.NRRxPdcpEntity Cid: 134807553" typename "\"simu5g.stack.pdcp_rrc.NRRxPdcpEntity\""
par "vehicularMecTest.gNodeB1.cellularNic.pdcpRrc.NRRxPdcpEntity Cid: 134807553" outOfOrderDelivery false
par "vehicularMecTest.gNodeB1.cellularNic.pdcpRrc.NRRxPdcpEntity Cid: 134807553" timeout 0.1s
attr unit s
par "vehicularMecTest.gNodeB1.cellularNic.pdcpRrc.NRRxPdcpEntity Cid: 134807553" rxWindowSize 4096
par "vehicularMecTest.gNodeB1.cellularNic.pdcpRrc.NRRxPdcpEntity Cid: 134873089" typename "\"simu5g.stack.pdcp_rrc.NRRxPdcpEntity\""
par "vehicularMecTest.gNodeB1.cellularNic.pdcpRrc.NRRxPdcpEntity Cid: 134873089" outOfOrderDelivery false
par "vehicularMecTest.gNodeB1.cellularNic.pdcpRrc.NRRxPdcpEntity Cid: 134873089" timeout 0.1s
attr unit s
par "vehicularMecTest.gNodeB1.cellularNic.pdcpRrc.NRRxPdcpEntity Cid: 134873089" rxWindowSize 4096
par "vehicularMecTest.gNodeB1.cellularNic.pdcpRrc.NRTxPdcpEntity Cid: 134348801" typename "\"simu5g.stack.pdcp_rrc.NRTxPdcpEntity\""
par "vehicularMecTest.gNodeB1.cellularNic.pdcpRrc.NRTxPdcpEntity Cid: 134414338" typename "\"simu5g.stack.pdcp_rrc.NRTxPdcpEntity\""
par "vehicularMecTest.gNodeB1.cellularNic.pdcpRrc.NRTxPdcpEntity Cid: 134479875" typename "\"simu5g.stack.pdcp_rrc.NRTxPdcpEntity\""
par "vehicularMecTest.gNodeB1.cellularNic.pdcpRrc.NRTxPdcpEntity Cid: 134545412" typename "\"simu5g.stack.pdcp_rrc.NRTxPdcpEntity\""
par "vehicularMecTest.gNodeB1.cellularNic.pdcpRrc.NRTxPdcpEntity Cid: 134610949" typename "\"simu5g.stack.pdcp_rrc.NRTxPdcpEntity\""
par "vehicularMecTest.gNodeB1.cellularNic.pdcpRrc.NRTxPdcpEntity Cid: 134676486" typename "\"simu5g.stack.pdcp_rrc.NRTxPdcpEntity\""
par "vehicularMecTest.gNodeB1.cellularNic.pdcpRrc.NRTxPdcpEntity Cid: 134742023" typename "\"simu5g.stack.pdcp_rrc.NRTxPdcpEntity\""
par "vehicularMecTest.gNodeB1.cellularNic.pdcpRrc.NRTxPdcpEntity Cid: 134807560" typename "\"simu5g.stack.pdcp_rrc.NRTxPdcpEntity\""
par "vehicularMecTest.gNodeB1.cellularNic.pdcpRrc.NRTxPdcpEntity Cid: 134873097" typename "\"simu5g.stack.pdcp_rrc.NRTxPdcpEntity\""
par "vehicularMecTest.gNodeB1.cellularNic.pdcpRrc.NRRxPdcpEntity Cid: 135004161" typename "\"simu5g.stack.pdcp_rrc.NRRxPdcpEntity\""
par "vehicularMecTest.gNodeB1.cellularNic.pdcpRrc.NRRxPdcpEntity Cid: 135004161" outOfOrderDelivery false
par "vehicularMecTest.gNodeB1.cellularNic.pdcpRrc.NRRxPdcpEntity Cid: 135004161" timeout 0.1s
attr unit s
par "vehicularMecTest.gNodeB1.cellularNic.pdcpRrc.NRRxPdcpEntity Cid: 135004161" rxWindowSize 4096
par "vehicularMecTest.gNodeB1.cellularNic.pdcpRrc.NRRxPdcpEntity Cid: 135069697" typename "\"simu5g.stack.pdcp_rrc.NRRxPdcpEntity\""
par "vehicularMecTest.gNodeB1.cellularNic.pdcpRrc.NRRxPdcpEntity Cid: 135069697" outOfOrderDelivery false
par "vehicularMecTest.gNodeB1.cellularNic.pdcpRrc.NRRxPdcpEntity Cid: 135069697" timeout 0.1s
attr unit s
par "vehicularMecTest.gNodeB1.cellularNic.pdcpRrc.NRRxPdcpEntity Cid: 135069697" rxWindowSize 4096
par "vehicularMecTest.gNodeB1.cellularNic.pdcpRrc.NRRxPdcpEntity Cid: 135135233" typename "\"simu5g.stack.pdcp_rrc.NRRxPdcpEntity\""
par "vehicularMecTest.gNodeB1.cellularNic.pdcpRrc.NRRxPdcpEntity Cid: 135135233" outOfOrderDelivery false
par "vehicularMecTest.gNodeB1.cellularNic.pdcpRrc.NRRxPdcpEntity Cid: 135135233" timeout 0.1s
attr unit s
par "vehicularMecTest.gNodeB1.cellularNic.pdcpRrc.NRRxPdcpEntity Cid: 135135233" rxWindowSize 4096
par "vehicularMecTest.gNodeB1.cellularNic.pdcpRrc.NRRxPdcpEntity Cid: 135200769" typename "\"simu5g.stack.pdcp_rrc.NRRxPdcpEntity\""
par "vehicularMecTest.gNodeB1.cellularNic.pdcpRrc.NRRxPdcpEntity Cid: 135200769" outOfOrderDelivery false
par "vehicularMecTest.gNodeB1.cellularNic.pdcpRrc.NRRxPdcpEntity Cid: 135200769" timeout 0.1s
attr unit s
par "vehicularMecTest.gNodeB1.cellularNic.pdcpRrc.NRRxPdcpEntity Cid: 135200769" rxWindowSize 4096
par "vehicularMecTest.gNodeB1.cellularNic.pdcpRrc.NRRxPdcpEntity Cid: 135266305" typename "\"simu5g.stack.pdcp_rrc.NRRxPdcpEntity\""
par "vehicularMecTest.gNodeB1.cellularNic.pdcpRrc.NRRxPdcpEntity Cid: 135266305" outOfOrderDelivery false
par "vehicularMecTest.gNodeB1.cellularNic.pdcpRrc.NRRxPdcpEntity Cid: 135266305" timeout 0.1s
attr unit s
par "vehicularMecTest.gNodeB1.cellularNic.pdcpRrc.NRRxPdcpEntity Cid: 135266305" rxWindowSize 4096
par "vehicularMecTest.gNodeB1.cellularNic.pdcpRrc.NRRxPdcpEntity Cid: 135331841" typename "\"simu5g.stack.pdcp_rrc.NRRxPdcpEntity\""
par "vehicularMecTest.gNodeB1.cellularNic.pdcpRrc.NRRxPdcpEntity Cid: 135331841" outOfOrderDelivery false
par "vehicularMecTest.gNodeB1.cellularNic.pdcpRrc.NRRxPdcpEntity Cid: 135331841" timeout 0.1s
attr unit s
par "vehicularMecTest.gNodeB1.cellularNic.pdcpRrc.NRRxPdcpEntity Cid: 135331841" rxWindowSize 4096
par "vehicularMecTest.gNodeB1.cellularNic.pdcpRrc.NRRxPdcpEntity Cid: 135397377" typename "\"simu5g.stack.pdcp_rrc.NRRxPdcpEntity\""
par "vehicularMecTest.gNodeB1.cellularNic.pdcpRrc.NRRxPdcpEntity Cid: 135397377" outOfOrderDelivery false
par "vehicularMecTest.gNodeB1.cellularNic.pdcpRrc.NRRxPdcpEntity Cid: 135397377" timeout 0.1s
attr unit s
par "vehicularMecTest.gNodeB1.cellularNic.pdcpRrc.NRRxPdcpEntity Cid: 135397377" rxWindowSize 4096
par "vehicularMecTest.gNodeB1.cellularNic.pdcpRrc.NRRxPdcpEntity Cid: 135462913" typename "\"simu5g.stack.pdcp_rrc.NRRxPdcpEntity\""
par "vehicularMecTest.gNodeB1.cellularNic.pdcpRrc.NRRxPdcpEntity Cid: 135462913" outOfOrderDelivery false
par "vehicularMecTest.gNodeB1.cellularNic.pdcpRrc.NRRxPdcpEntity Cid: 135462913" timeout 0.1s
attr unit s
par "vehicularMecTest.gNodeB1.cellularNic.pdcpRrc.NRRxPdcpEntity Cid: 135462913" rxWindowSize 4096
par "vehicularMecTest.gNodeB1.cellularNic.pdcpRrc.NRTxPdcpEntity Cid: 135004170" typename "\"simu5g.stack.pdcp_rrc.NRTxPdcpEntity\""
par "vehicularMecTest.gNodeB1.cellularNic.pdcpRrc.NRTxPdcpEntity Cid: 135069707" typename "\"simu5g.stack.pdcp_rrc.NRTxPdcpEntity\""
par "vehicularMecTest.gNodeB1.cellularNic.pdcpRrc.NRTxPdcpEntity Cid: 135135244" typename "\"simu5g.stack.pdcp_rrc.NRTxPdcpEntity\""
par "vehicularMecTest.gNodeB1.cellularNic.pdcpRrc.NRTxPdcpEntity Cid: 135200781" typename "\"simu5g.stack.pdcp_rrc.NRTxPdcpEntity\""
par "vehicularMecTest.gNodeB1.cellularNic.pdcpRrc.NRTxPdcpEntity Cid: 135266318" typename "\"simu5g.stack.pdcp_rrc.NRTxPdcpEntity\""
par "vehicularMecTest.gNodeB1.cellularNic.pdcpRrc.NRTxPdcpEntity Cid: 135331855" typename "\"simu5g.stack.pdcp_rrc.NRTxPdcpEntity\""
par "vehicularMecTest.gNodeB1.cellularNic.pdcpRrc.NRTxPdcpEntity Cid: 135397392" typename "\"simu5g.stack.pdcp_rrc.NRTxPdcpEntity\""
par "vehicularMecTest.gNodeB1.cellularNic.pdcpRrc.NRTxPdcpEntity Cid: 135462929" typename "\"simu5g.stack.pdcp_rrc.NRTxPdcpEntity\""
par "vehicularMecTest.gNodeB1.cellularNic.pdcpRrc.NRRxPdcpEntity Cid: 134938625" typename "\"simu5g.stack.pdcp_rrc.NRRxPdcpEntity\""
par "vehicularMecTest.gNodeB1.cellularNic.pdcpRrc.NRRxPdcpEntity Cid: 134938625" outOfOrderDelivery false
par "vehicularMecTest.gNodeB1.cellularNic.pdcpRrc.NRRxPdcpEntity Cid: 134938625" timeout 0.1s
attr unit s
par "vehicularMecTest.gNodeB1.cellularNic.pdcpRrc.NRRxPdcpEntity Cid: 134938625" rxWindowSize 4096
par "vehicularMecTest.gNodeB1.cellularNic.pdcpRrc.NRTxPdcpEntity Cid: 134938642" typename "\"simu5g.stack.pdcp_rrc.NRTxPdcpEntity\""
par "vehicularMecTest.gNodeB1.cellularNic.pdcpRrc.NRRxPdcpEntity Cid: 134348802" typename "\"simu5g.stack.pdcp_rrc.NRRxPdcpEntity\""
par "vehicularMecTest.gNodeB1.cellularNic.pdcpRrc.NRRxPdcpEntity Cid: 134348802" outOfOrderDelivery false
par "vehicularMecTest.gNodeB1.cellularNic.pdcpRrc.NRRxPdcpEntity Cid: 134348802" timeout 0.1s
attr unit s
par "vehicularMecTest.gNodeB1.cellularNic.pdcpRrc.NRRxPdcpEntity Cid: 134348802" rxWindowSize 4096
par "vehicularMecTest.gNodeB1.cellularNic.pdcpRrc.NRRxPdcpEntity Cid: 134414338" typename "\"simu5g.stack.pdcp_rrc.NRRxPdcpEntity\""
par "vehicularMecTest.gNodeB1.cellularNic.pdcpRrc.NRRxPdcpEntity Cid: 134414338" outOfOrderDelivery false
par "vehicularMecTest.gNodeB1.cellularNic.pdcpRrc.NRRxPdcpEntity Cid: 134414338" timeout 0.1s
attr unit s
par "vehicularMecTest.gNodeB1.cellularNic.pdcpRrc.NRRxPdcpEntity Cid: 134414338" rxWindowSize 4096
par "vehicularMecTest.gNodeB1.cellularNic.pdcpRrc.NRRxPdcpEntity Cid: 134545410" typename "\"simu5g.stack.pdcp_rrc.NRRxPdcpEntity\""
par "vehicularMecTest.gNodeB1.cellularNic.pdcpRrc.NRRxPdcpEntity Cid: 134545410" outOfOrderDelivery false
par "vehicularMecTest.gNodeB1.cellularNic.pdcpRrc.NRRxPdcpEntity Cid: 134545410" timeout 0.1s
attr unit s
par "vehicularMecTest.gNodeB1.cellularNic.pdcpRrc.NRRxPdcpEntity Cid: 134545410" rxWindowSize 4096
par "vehicularMecTest.gNodeB1.cellularNic.pdcpRrc.NRRxPdcpEntity Cid: 134479874" typename "\"simu5g.stack.pdcp_rrc.NRRxPdcpEntity\""
par "vehicularMecTest.gNodeB1.cellularNic.pdcpRrc.NRRxPdcpEntity Cid: 134479874" outOfOrderDelivery false
par "vehicularMecTest.gNodeB1.cellularNic.pdcpRrc.NRRxPdcpEntity Cid: 134479874" timeout 0.1s
attr unit s
par "vehicularMecTest.gNodeB1.cellularNic.pdcpRrc.NRRxPdcpEntity Cid: 134479874" rxWindowSize 4096
par "vehicularMecTest.gNodeB1.cellularNic.pdcpRrc.NRRxPdcpEntity Cid: 134610946" typename "\"simu5g.stack.pdcp_rrc.NRRxPdcpEntity\""
par "vehicularMecTest.gNodeB1.cellularNic.pdcpRrc.NRRxPdcpEntity Cid: 134610946" outOfOrderDelivery false
par "vehicularMecTest.gNodeB1.cellularNic.pdcpRrc.NRRxPdcpEntity Cid: 134610946" timeout 0.1s
attr unit s
par "vehicularMecTest.gNodeB1.cellularNic.pdcpRrc.NRRxPdcpEntity Cid: 134610946" rxWindowSize 4096
par "vehicularMecTest.gNodeB1.cellularNic.pdcpRrc.NRRxPdcpEntity Cid: 134676482" typename "\"simu5g.stack.pdcp_rrc.NRRxPdcpEntity\""
par "vehicularMecTest.gNodeB1.cellularNic.pdcpRrc.NRRxPdcpEntity Cid: 134676482" outOfOrderDelivery false
par "vehicularMecTest.gNodeB1.cellularNic.pdcpRrc.NRRxPdcpEntity Cid: 134676482" timeout 0.1s
attr unit s
par "vehicularMecTest.gNodeB1.cellularNic.pdcpRrc.NRRxPdcpEntity Cid: 134676482" rxWindowSize 4096
par "vehicularMecTest.gNodeB1.cellularNic.pdcpRrc.NRRxPdcpEntity Cid: 134807554" typename "\"simu5g.stack.pdcp_rrc.NRRxPdcpEntity\""
par "vehicularMecTest.gNodeB1.cellularNic.pdcpRrc.NRRxPdcpEntity Cid: 134807554" outOfOrderDelivery false
par "vehicularMecTest.gNodeB1.cellularNic.pdcpRrc.NRRxPdcpEntity Cid: 134807554" timeout 0.1s
attr unit s
[...]
scalar vehicularMecTest.car[6].cellularNic.nrPhy averageCqiUl:count 42
attr recordingmode count
attr source averageCqiUl
attr title "Average Cqi reported in UL, count"
attr unit cqi
scalar vehicularMecTest.car[6].cellularNic.nrPhy averageCqiDl:mean 13
attr recordingmode mean
attr source averageCqiDl
attr title "Average Cqi reported in DL, mean"
attr unit cqi
scalar vehicularMecTest.car[6].cellularNic.nrPhy averageCqiDl:count 15
attr recordingmode count
attr source averageCqiDl
attr title "Average Cqi reported in DL, count"
attr unit cqi
par vehicularMecTest.car[6].cellularNic.nrChannelModel[0] typename "\"simu5g.stack.phy.ChannelModel.NRChannelModel_3GPP38_901\""
par vehicularMecTest.car[6].cellularNic.nrChannelModel[0] componentCarrierIndex 0
par vehicularMecTest.car[6].cellularNic.nrChannelModel[0] shadowing true
par vehicularMecTest.car[6].cellularNic.nrChannelModel[0] scenario "\"URBAN_MACROCELL\""
par vehicularMecTest.car[6].cellularNic.nrChannelModel[0] nodeb_height 25
par vehicularMecTest.car[6].cellularNic.nrChannelModel[0] building_height 20
par vehicularMecTest.car[6].cellularNic.nrChannelModel[0] inside_building false
par vehicularMecTest.car[6].cellularNic.nrChannelModel[0] street_wide 20
par vehicularMecTest.car[6].cellularNic.nrChannelModel[0] ue_height 1.5
par vehicularMecTest.car[6].cellularNic.nrChannelModel[0] tolerateMaxDistViolation false
par vehicularMecTest.car[6].cellularNic.nrChannelModel[0] useTorus false
par vehicularMecTest.car[6].cellularNic.nrChannelModel[0] correlation_distance 50
par vehicularMecTest.car[6].cellularNic.nrChannelModel[0] targetBler 0.01
par vehicularMecTest.car[6].cellularNic.nrChannelModel[0] harqReduction 0.2
par vehicularMecTest.car[6].cellularNic.nrChannelModel[0] lambdaMinTh 0.02
par vehicularMecTest.car[6].cellularNic.nrChannelModel[0] lambdaMaxTh 0.2
par vehicularMecTest.car[6].cellularNic.nrChannelModel[0] lambdaRatioTh 20
par vehicularMecTest.car[6].cellularNic.nrChannelModel[0] antennaGainUe 0
par vehicularMecTest.car[6].cellularNic.nrChannelModel[0] antennGainEnB 18
par vehicularMecTest.car[6].cellularNic.nrChannelModel[0] antennGainMicro 5
par vehicularMecTest.car[6].cellularNic.nrChannelModel[0] thermalNoise -104.5
par vehicularMecTest.car[6].cellularNic.nrChannelModel[0] ue_noise_figure 7
par vehicularMecTest.car[6].cellularNic.nrChannelModel[0] bs_noise_figure 5
par vehicularMecTest.car[6].cellularNic.nrChannelModel[0] cable_loss 2
par vehicularMecTest.car[6].cellularNic.nrChannelModel[0] dynamic_los false
par vehicularMecTest.car[6].cellularNic.nrChannelModel[0] fixed_los false
par vehicularMecTest.car[6].cellularNic.nrChannelModel[0] fading true
par vehicularMecTest.car[6].cellularNic.nrChannelModel[0] fading_type "\"JAKES\""
par vehicularMecTest.car[6].cellularNic.nrChannelModel[0] fading_paths 6
par vehicularMecTest.car[6].cellularNic.nrChannelModel[0] delay_rms 3.63e-07
par vehicularMecTest.car[6].cellularNic.nrChannelModel[0] bgCell_interference true
par vehicularMecTest.car[6].cellularNic.nrChannelModel[0] extCell_interference true
par vehicularMecTest.car[6].cellularNic.nrChannelModel[0] downlink_interference false
par vehicularMecTest.car[6].cellularNic.nrChannelModel[0] uplink_interference false
par vehicularMecTest.car[6].cellularNic.nrChannelModel[0] d2d_interference true
par vehicularMecTest.car[6].cellularNic.nrChannelModel[0] enable_extCell_los true
par vehicularMecTest.car[6].cellularNic.nrChannelModel[0] useRsrqFromLog false
par vehicularMecTest.car[6].cellularNic.nrChannelModel[0] rsrqShift 22
par vehicularMecTest.car[6].cellularNic.nrChannelModel[0] rsrqScale 1
par vehicularMecTest.car[6].cellularNic.nrChannelModel[0] collectSinrStatistics true
par vehicularMecTest.car[6].cellularNic.nrChannelModel[0] useBuildingPenetrationLossHighLossModel false
scalar vehicularMecTest.car[6].cellularNic.nrChannelModel[0] rcvdPWRUl:mean -192.95543753622
attr recordingmode mean
attr source rcvdPWRUl
attr title "Signal power measured at packet reception, UL, mean"
attr unit dB
scalar vehicularMecTest.car[6].cellularNic.nrChannelModel[0] rcvdPWRDl:mean -126.30816023775
attr recordingmode mean
attr source rcvdPWRDl
attr title "Signal power measured at packet reception, DL, mean"
attr unit dB
scalar vehicularMecTest.car[6].cellularNic.nrChannelModel[0] distance:mean 1276.310394872
attr recordingmode mean
attr source distance
attr title "distance between UE and serving base station, mean"
attr unit meters
scalar vehicularMecTest.car[6].cellularNic.nrChannelModel[0] measuredSinrUl:mean 17.070241533502
attr recordingmode mean
attr source measuredSinrUl
attr title "SINR measured at feedback computation, UL, mean"
attr unit dB
scalar vehicularMecTest.car[6].cellularNic.nrChannelModel[0] measuredSinrDl:mean 22.397243438494
attr recordingmode mean
attr source measuredSinrDl
attr title "SINR measured at feedback computation, DL, mean"
attr unit dB
scalar vehicularMecTest.car[6].cellularNic.nrChannelModel[0] rcvdSinrUl:mean 21.007956933531
attr recordingmode mean
attr source rcvdSinrUl
attr title "SINR measured at packet reception, UL, mean"
attr unit dB
scalar vehicularMecTest.car[6].cellularNic.nrChannelModel[0] rcvdSinrDl:mean 18.696695752667
attr recordingmode mean
attr source rcvdSinrDl
attr title "SINR measured at packet reception, DL, mean"
attr unit dB
par vehicularMecTest.car[6].cellularNic.nrDlFbGen typename "\"simu5g.stack.phy.feedback.LteDlFeedbackGenerator\""
par vehicularMecTest.car[6].cellularNic.nrDlFbGen feedbackType "\"ALLBANDS\""
par vehicularMecTest.car[6].cellularNic.nrDlFbGen rbAllocationType "\"localized\""
par vehicularMecTest.car[6].cellularNic.nrDlFbGen fbPeriod 40
par vehicularMecTest.car[6].cellularNic.nrDlFbGen fbDelay 1
par vehicularMecTest.car[6].cellularNic.nrDlFbGen usePeriodic true
par vehicularMecTest.car[6].cellularNic.nrDlFbGen initialTxMode "\"SINGLE_ANTENNA_PORT0\""
par vehicularMecTest.car[6].cellularNic.nrDlFbGen feedbackGeneratorType "\"IDEAL\""
par vehicularMecTest.car[6].cellularNic typename "\"simu5g.stack.NRNicUe\""
par vehicularMecTest.car[6].cellularNic displayStringTextFormat "\"%a (%i)\\n%m\""
par vehicularMecTest.car[6].cellularNic recordPcap false
par vehicularMecTest.car[6].cellularNic numPcapRecorders 0
par vehicularMecTest.car[6].cellularNic isWireless true
par vehicularMecTest.car[6].cellularNic interfaceTableModule "\"vehicularMecTest.car[6].interfaceTable\""
par vehicularMecTest.car[6].cellularNic routingTableModule "\"vehicularMecTest.car[6].ipv4.routingTable\""
par vehicularMecTest.car[6].cellularNic LtePdcpRrcType "\"NRPdcpRrcUe\""
par vehicularMecTest.car[6].cellularNic LteMacType "\"LteMacUeD2D\""
par vehicularMecTest.car[6].cellularNic PacketFlowManagerType "\"PacketFlowManagerUe\""
par vehicularMecTest.car[6].cellularNic hasRNISupport false
par vehicularMecTest.car[6].cellularNic LtePhyType "\"NRPhyUe\""
par vehicularMecTest.car[6].cellularNic nodeType "\"UE\""
par vehicularMecTest.car[6].cellularNic processingDelayIn 0s
attr unit s
par vehicularMecTest.car[6].cellularNic processingDelayOut 0s
attr unit s
par vehicularMecTest.car[6].cellularNic LteChannelModelType "\"NRChannelModel\""
par vehicularMecTest.car[6].cellularNic d2dCapable true
par vehicularMecTest.car[6].cellularNic dualConnectivityEnabled false
par vehicularMecTest.car[6].cellularNic numCarriers 1
par vehicularMecTest.car[6].cellularNic address "\"0A-AA-00-00-00-08\""
attr mutable ""
par vehicularMecTest.car[6].cellularNic d2dInitialMode false
par vehicularMecTest.car[6].cellularNic NRMacType "\"NRMacUe\""
par vehicularMecTest.car[6].cellularNic NRPhyType "\"NRPhyUe\""
par vehicularMecTest.car[6].cellularNic NRChannelModelType "\"NRChannelModel_3GPP38_901\""
par vehicularMecTest.car[6].cellularNic NRPacketFlowManagerType "\"NRPacketFlowManagerUe\""
par vehicularMecTest.car[6].cellularNic numNRCarriers 1
scalar vehicularMecTest.car[6].cellularNic packetDropInterfaceDown:count 0
attr interpolationmode none
attr recordingmode count
attr source packetDropReasonIsInterfaceDown(packetDropped)
attr title "packet drops: interface down, count"
scalar vehicularMecTest.car[6].cellularNic packetDropInterfaceDown:sum(packetBytes) 0
attr interpolationmode none
attr recordingmode sum(packetBytes)
attr source packetDropReasonIsInterfaceDown(packetDropped)
attr title "packet drops: interface down, sum(packetBytes)"
scalar vehicularMecTest.car[6].cellularNic packetDropNoCarrier:count 0
attr interpolationmode none
attr recordingmode count
attr source packetDropReasonIsNoCarrier(packetDropped)
attr title "packet drops: no carrier, count"
scalar vehicularMecTest.car[6].cellularNic packetDropNoCarrier:sum(packetBytes) 0
attr interpolationmode none
attr recordingmode sum(packetBytes)
attr source packetDropReasonIsNoCarrier(packetDropped)
attr title "packet drops: no carrier, sum(packetBytes)"
par vehicularMecTest.car[6].encap typename "\"inet.linklayer.ethernet.basic.EthernetEncapsulation\""
par vehicularMecTest.car[6].encap registerProtocol true
par vehicularMecTest.car[6].encap interfaceTableModule "\"vehicularMecTest.car[6].interfaceTable\""
par vehicularMecTest.car[6].encap fcsMode "\"declared\""
attr enum declared,computed
par vehicularMecTest.car[6].encap stopOperationExtraTime -1s
attr unit s
par vehicularMecTest.car[6].encap stopOperationTimeout 2s
attr unit s
scalar vehicularMecTest.car[6].encap pauseSent:count 0
attr recordingmode count
attr title "pause sent, count"
scalar vehicularMecTest.car[6].encap pauseSent:sum 0
attr recordingmode sum
attr title "pause sent, sum"
scalar vehicularMecTest.car[6].encap decapPk:count 0
attr interpolationmode none
attr recordingmode count
attr source decapPk
attr title "packets decapsulated, count"
scalar vehicularMecTest.car[6].encap decapPk:sum(packetBytes) 0
attr interpolationmode none
attr recordingmode sum(packetBytes)
attr source decapPk
attr title "packets decapsulated, sum(packetBytes)"
scalar vehicularMecTest.car[6].encap encapPk:count 0
attr interpolationmode none
attr recordingmode count
attr source encapPk
attr title "packets encapsulated, count"
scalar vehicularMecTest.car[6].encap encapPk:sum(packetBytes) 0
attr interpolationmode none
attr recordingmode sum(packetBytes)
attr source encapPk
attr title "packets encapsulated, sum(packetBytes)"
par vehicularMecTest.car[6].ipv4.transportIn.channel typename "\"ned.IdealChannel\""
par vehicularMecTest.car[6].ipv4.up.out[0].channel typename "\"ned.IdealChannel\""
par vehicularMecTest.car[6].ipv4.lp.out[2].channel typename "\"ned.IdealChannel\""
par vehicularMecTest.car[6].ipv4.ifIn.channel typename "\"ned.IdealChannel\""
par vehicularMecTest.car[6].ipv4.configurator typename "\"inet.networklayer.configurator.ipv4.HostAutoConfigurator\""
par vehicularMecTest.car[6].ipv4.configurator interfaceTableModule "\"vehicularMecTest.car[6].interfaceTable\""
par vehicularMecTest.car[6].ipv4.configurator interfaces "\"cellular lo0\""
par vehicularMecTest.car[6].ipv4.configurator addressBase "\"10.0.0.0\""
par vehicularMecTest.car[6].ipv4.configurator netmask "\"255.0.0.0\""
par vehicularMecTest.car[6].ipv4.configurator mcastGroups "\"\""
par vehicularMecTest.car[6].ipv4.routingTable typename "\"inet.networklayer.ipv4.Ipv4RoutingTable\""
par vehicularMecTest.car[6].ipv4.routingTable interfaceTableModule "\"vehicularMecTest.car[6].interfaceTable\""
par vehicularMecTest.car[6].ipv4.routingTable routerId "\"auto\""
par vehicularMecTest.car[6].ipv4.routingTable netmaskRoutes "\"*\""
par vehicularMecTest.car[6].ipv4.routingTable forwarding false
par vehicularMecTest.car[6].ipv4.routingTable multicastForwarding false
par vehicularMecTest.car[6].ipv4.routingTable useAdminDist false
par vehicularMecTest.car[6].ipv4.routingTable routingFile "\"\""
par vehicularMecTest.car[6].ipv4.natTable typename "\"inet.networklayer.ipv4.Ipv4NatTable\""
par vehicularMecTest.car[6].ipv4.natTable networkProtocolModule "\"^.ip\""
par vehicularMecTest.car[6].ipv4.natTable config "<config/> at content:1"
par vehicularMecTest.car[6].ipv4.up typename "\"inet.common.MessageDispatcher\""
par vehicularMecTest.car[6].ipv4.up displayStringTextFormat "\"processed %p pk (%l)\""
par vehicularMecTest.car[6].ipv4.up forwardServiceRegistration true
par vehicularMecTest.car[6].ipv4.up forwardProtocolRegistration true
par vehicularMecTest.car[6].ipv4.igmp typename "\"inet.networklayer.ipv4.Igmpv2\""
par vehicularMecTest.car[6].ipv4.igmp interfaceTableModule "\"vehicularMecTest.car[6].interfaceTable\""
par vehicularMecTest.car[6].ipv4.igmp routingTableModule "\"vehicularMecTest.car[6].ipv4.routingTable\""
par vehicularMecTest.car[6].ipv4.igmp crcMode "\"computed\""
attr enum declared,computed
par vehicularMecTest.car[6].ipv4.igmp enabled true
par vehicularMecTest.car[6].ipv4.igmp robustnessVariable 2
par vehicularMecTest.car[6].ipv4.igmp queryInterval 125s
attr unit s
par vehicularMecTest.car[6].ipv4.igmp queryResponseInterval 10s
attr unit s
par vehicularMecTest.car[6].ipv4.igmp groupMembershipInterval 260s
attr unit s
par vehicularMecTest.car[6].ipv4.igmp otherQuerierPresentInterval 255s
attr unit s
par vehicularMecTest.car[6].ipv4.igmp startupQueryInterval 31.25s
attr unit s
par vehicularMecTest.car[6].ipv4.igmp startupQueryCount 2
par vehicularMecTest.car[6].ipv4.igmp lastMemberQueryInterval 1s
attr unit s
par vehicularMecTest.car[6].ipv4.igmp lastMemberQueryCount 2
par vehicularMecTest.car[6].ipv4.igmp unsolicitedReportInterval 10s
attr unit s
par vehicularMecTest.car[6].ipv4.icmp typename "\"inet.networklayer.ipv4.Icmp\""
par vehicularMecTest.car[6].ipv4.icmp interfaceTableModule "\"vehicularMecTest.car[6].interfaceTable\""
par vehicularMecTest.car[6].ipv4.icmp routingTableModule "\"vehicularMecTest.car[6].ipv4.routingTable\""
par vehicularMecTest.car[6].ipv4.icmp crcMode "\"computed\""
attr enum declared,computed
attr mutable ""
par vehicularMecTest.car[6].ipv4.icmp quoteLength 8B
attr mutable ""
attr unit B
par vehicularMecTest.car[6].ipv4.mp typename "\"inet.common.MessageDispatcher\""
par vehicularMecTest.car[6].ipv4.mp displayStringTextFormat "\"processed %p pk (%l)\""
par vehicularMecTest.car[6].ipv4.mp forwardServiceRegistration true
par vehicularMecTest.car[6].ipv4.mp forwardProtocolRegistration true
par vehicularMecTest.car[6].ipv4.ip typename "\"inet.networklayer.ipv4.Ipv4\""
par vehicularMecTest.car[6].ipv4.ip interfaceTableModule "\"vehicularMecTest.car[6].interfaceTable\""
par vehicularMecTest.car[6].ipv4.ip routingTableModule "\"vehicularMecTest.car[6].ipv4.routingTable\""
par vehicularMecTest.car[6].ipv4.ip arpModule "\"vehicularMecTest.car[6].ipv4.arp\""
par vehicularMecTest.car[6].ipv4.ip icmpModule "\"vehicularMecTest.car[6].ipv4.icmp\""
par vehicularMecTest.car[6].ipv4.ip crcMode "\"computed\""
attr enum declared,computed
par vehicularMecTest.car[6].ipv4.ip timeToLive 32
par vehicularMecTest.car[6].ipv4.ip multicastTimeToLive 32
par vehicularMecTest.car[6].ipv4.ip fragmentTimeout 60s
attr unit s
par vehicularMecTest.car[6].ipv4.ip limitedBroadcast false
par vehicularMecTest.car[6].ipv4.ip directBroadcastInterfaces "\"\""
scalar vehicularMecTest.car[6].ipv4.ip packetDropAddressResolutionFailed:count 0
attr interpolationmode none
attr recordingmode count
attr source packetDropReasonIsAddressResolutionFailed(packetDropped)
attr title "packet drop: address resolution failed, count"
scalar vehicularMecTest.car[6].ipv4.ip packetDropAddressResolutionFailed:sum(packetBytes) 0
attr interpolationmode none
attr recordingmode sum(packetBytes)
attr source packetDropReasonIsAddressResolutionFailed(packetDropped)
attr title "packet drop: address resolution failed, sum(packetBytes)"
scalar vehicularMecTest.car[6].ipv4.ip packetDropHopLimitReached:count 0
attr interpolationmode none
attr recordingmode count
attr source packetDropReasonIsHopLimitReached(packetDropped)
attr title "packet drop: hop limit reached, count"
scalar vehicularMecTest.car[6].ipv4.ip packetDropHopLimitReached:sum(packetBytes) 0
attr interpolationmode none
attr recordingmode sum(packetBytes)
attr source packetDropReasonIsHopLimitReached(packetDropped)
attr title "packet drop: hop limit reached, sum(packetBytes)"
scalar vehicularMecTest.car[6].ipv4.ip packetDropForwardingDisabled:count 0
attr interpolationmode none
attr recordingmode count
attr source packetDropReasonIsForwardingDisabled(packetDropped)
attr title "packet drop: forwarding disabled, count"
scalar vehicularMecTest.car[6].ipv4.ip packetDropForwardingDisabled:sum(packetBytes) 0
attr interpolationmode none
attr recordingmode sum(packetBytes)
attr source packetDropReasonIsForwardingDisabled(packetDropped)
attr title "packet drop: forwarding disabled, sum(packetBytes)"
scalar vehicularMecTest.car[6].ipv4.ip packetDropNoInterfaceFound:count 0
attr interpolationmode none
attr recordingmode count
attr source packetDropReasonIsNoInterfaceFound(packetDropped)
attr title "packet drop: no interface found, count"
scalar vehicularMecTest.car[6].ipv4.ip packetDropNoInterfaceFound:sum(packetBytes) 0
attr interpolationmode none
attr recordingmode sum(packetBytes)
attr source packetDropReasonIsNoInterfaceFound(packetDropped)
attr title "packet drop: no interface found, sum(packetBytes)"
scalar vehicularMecTest.car[6].ipv4.ip packetDropNoRouteFound:count 0
attr interpolationmode none
attr recordingmode count
attr source packetDropReasonIsNoRouteFound(packetDropped)
attr title "packet drop: no route found, count"
scalar vehicularMecTest.car[6].ipv4.ip packetDropNoRouteFound:sum(packetBytes) 0
attr interpolationmode none
attr recordingmode sum(packetBytes)
attr source packetDropReasonIsNoRouteFound(packetDropped)
attr title "packet drop: no route found, sum(packetBytes)"
scalar vehicularMecTest.car[6].ipv4.ip packetDropUndefined:count 0
attr interpolationmode none
attr recordingmode count
attr source packetDropReasonIsUndefined(packetDropped)
attr title "packet drop: undefined, count"
scalar vehicularMecTest.car[6].ipv4.ip packetDropUndefined:sum(packetBytes) 0
attr interpolationmode none
attr recordingmode sum(packetBytes)
attr source packetDropReasonIsUndefined(packetDropped)
attr title "packet drop: undefined, sum(packetBytes)"
par vehicularMecTest.car[6].ipv4.arp typename "\"inet.networklayer.arp.ipv4.Arp\""
par vehicularMecTest.car[6].ipv4.arp interfaceTableModule "\"vehicularMecTest.car[6].interfaceTable\""
par vehicularMecTest.car[6].ipv4.arp routingTableModule "\"vehicularMecTest.car[6].ipv4.routingTable\""
par vehicularMecTest.car[6].ipv4.arp retryTimeout 1s
attr unit s
par vehicularMecTest.car[6].ipv4.arp retryCount 3
par vehicularMecTest.car[6].ipv4.arp cacheTimeout 120s
attr unit s
par vehicularMecTest.car[6].ipv4.arp proxyArpInterfaces "\"*\""
scalar vehicularMecTest.car[6].ipv4.arp arpResolutionFailed:count 0
attr recordingmode count
attr title "ARP failed resolutions, count"
scalar vehicularMecTest.car[6].ipv4.arp arpResolutionCompleted:count 0
attr recordingmode count
attr title "ARP completed resolutions, count"
scalar vehicularMecTest.car[6].ipv4.arp arpResolutionInitiated:count 0
attr recordingmode count
attr title "ARP initiated resolutions, count"
scalar vehicularMecTest.car[6].ipv4.arp arpReplySent:count 0
attr recordingmode count
attr source arpReplySent
attr title "ARP replies sent, count"
scalar vehicularMecTest.car[6].ipv4.arp arpReplySent:sum(packetBytes) 0
attr recordingmode sum(packetBytes)
attr source arpReplySent
attr title "ARP replies sent, sum(packetBytes)"
scalar vehicularMecTest.car[6].ipv4.arp arpRequestSent:count 0
attr recordingmode count
attr source arpRequestSent
attr title "ARP request sent, count"
scalar vehicularMecTest.car[6].ipv4.arp arpRequestSent:sum(packetBytes) 0
attr recordingmode sum(packetBytes)
attr source arpRequestSent
attr title "ARP request sent, sum(packetBytes)"
par vehicularMecTest.car[6].ipv4.lp typename "\"inet.common.MessageDispatcher\""
par vehicularMecTest.car[6].ipv4.lp displayStringTextFormat "\"processed %p pk (%l)\""
par vehicularMecTest.car[6].ipv4.lp forwardServiceRegistration true
par vehicularMecTest.car[6].ipv4