                                                                
version 3
run test-2-20230911-13:37:30-5452
attr configname test
attr datetime 20230911-13:37:30
attr datetimef 20230911-133730
attr experiment test
attr inifile omnetpp.ini
attr iterationvars ""
attr iterationvarsd ""
attr iterationvarsf ""
attr measurement ""
attr network simu5g.simulations.NR.mec.vehicularMec.vehicularMecTest
attr processid 5452
attr repetition 2
attr replication #2
attr resultdir results
attr runnumber 2
attr seedset 2
config image-path ../../../../images:../../../../../inet/images:../../../../../veins/images:../../../../../veins_inet/images
config sim-time-limit 5s
config *.car[*].numApps 2
config *.car[*].app[0].typename DeviceApp
config *.car[*].app[0].localPort 4509
config *.car[*].app[0].UALCMPAddress "\"ualcmp\""
config *.car[*].app[0].UALCMPPort 1000
config *.car[*].app[0].appPackageSource "\"ApplicationDescriptors/PingPongApp.json\""
config *.car[*].app[1].typename UEPingPongApp
config *.car[*].app[1].name "\"test\""
config *.car[*].app[1].deviceAppAddress "\"car[\"+string(ancestorIndex(1))+\"]\""
config *.car[*].app[1].deviceAppPort 4509
config *.car[*].app[1].startTime 0.1s
config *.car[*].app[1].localPort 4009
config *.car[*].app[1].payloadSize 2000
config *.car[*].app[1].interReqTime 0.01
config *.car[*].app[1].mecAppName "\"Test_car[\"+string(ancestorIndex(1))+\"]\""
config **.ipv4.ip.crcMode "\"computed\""
config **.crcMode "\"computed\""
config **.radius 250
config cmdenv-output-file logs.txt
config cmdenv-express-mode false
config cmdenv-redirect-output true
config image-path ../../../images
config cmdenv-express-mode true
config cmdenv-autoflush true
config num-rngs 3
config repeat 5
config seed-set 2
config output-scalar-file-append false
config output-vector-file results/test/2.vec
config output-scalar-file results/test/2.sca
config **.routingRecorder.enabled false
config **.mecHost.**.vector-recording true
config **.mecHost.**.scalar-recording true
config **.vector-recording true
config **.scalar-recording true
config **.statistic-recording true
config **.bin-recording true
config debug-on-errors false
config sim-time-limit 20s
config *.playgroundSizeX 11000m
config *.playgroundSizeY 8000m
config *.playgroundSizeZ 500m
config *.configurator.config "xmldoc(\"./demo.xml\")"
config *.gNodeB*.cellInfo.broadcastMessageInterval 0.5s
config **.fbPeriod 40
config **.amcType "\"NRAmc\""
config **.pilotMode "\"ROBUST_CQI\""
config **.targetBler 0.01
config **.blerShift 5
config network simu5g.simulations.NR.mec.vehicularMec.vehicularMecTest
config *.carrierAggregation.numComponentCarriers 1
config *.carrierAggregation.componentCarrier[0].carrierFrequency "700 MHz"
config *.carrierAggregation.componentCarrier[0].numerologyIndex 1
config *.carrierAggregation.componentCarrier[0].numBands 50
config *.*.cellularNic.LteChannelModelType "\"NRChannelModel\""
config *.gNodeB1.cellularNic.numCarriers 1
config *.gNodeB1.cellularNic.channelModel[0].componentCarrierIndex index
config *.car[*].cellularNic.numCarriers 1
config *.car[*].cellularNic.nrChannelModel[0].componentCarrierIndex 0
config *.car[*].veinsmobilityType "\"org.car2x.veins.modules.mobility.traci.TraCIMobility\""
config *.car[*].veinsmobility.x 0
config *.car[*].veinsmobility.y 0
config *.car[*].veinsmobility.z 0
config *.veinsManager.host "\"localhost\""
config *.veinsManager.moduleType "\"simu5g.nodes.cars.NRCar\""
config *.veinsManager.moduleName "\"car\""
config *.veinsManager.launchConfig "xmldoc(\"erlangen.launchd.xml\")"
config *.veinsManager.updateInterval 1s
config *.manager.updateInterval 1s
config *.manager.host "\"localhost\""
config *.manager.autoShutdown true
config *.manager.launchConfig "xmldoc(\"erlangen.launchd.xml\")"
config *.manager.moduleType "\"simu5g.nodes.NR.NRCarTrackable\""
config *.manager.moduleName "\"car\""
config *.connectionManager.sendDirect false
config *.connectionManager.maxInterfDist 0m
config *.connectionManager.drawMaxIntfDist false
config *.gNodeB*.mobility.initFromDisplayString true
config **.car[*].masterId 0
config **.car[*].macCellId 0
config **.car[*].nrMasterId 1
config **.car[*].nrMacCellId 1
config **.gNodeB1.macCellId 1
config **.gNodeB1.macNodeId 1
config **.tcp.typename Tcp
config **.tcp.advertisedWindow 65535
config **.tcp.tcpAlgorithmClass "\"TcpReno\""
config **.tcp.sackSupport true
config **.hasRNISupport false
config *.car[*].numApps 4
config *.car[*].app[0].typename DeviceApp
config *.car[*].app[0].localPort 4500
config *.car[*].app[0].UALCMPAddress "\"ualcmp\""
config *.car[*].app[0].UALCMPPort 1000
config *.car[*].app[0].appPackageSource "\"ApplicationDescriptors/PingPongApp.json\""
config *.car[*].app[1].typename UEPingPongApp
config *.car[*].app[1].name "\"Platooning\""
config *.car[*].app[1].deviceAppAddress "\"car[\"+string(ancestorIndex(1))+\"]\""
config *.car[*].app[1].deviceAppPort 4500
config *.car[*].app[1].localPort 4000
config *.car[*].app[1].startTime 1s
config *.car[*].app[1].payloadSize 6500
config *.car[*].app[1].interReqTime 0.02
config *.car[*].app[1].test 1
config *.car[*].app[1].mecAppName "\"Platooning_car[\"+string(ancestorIndex(1))+\"]\""
config *.car[*].app[2].typename DeviceApp
config *.car[*].app[2].localPort 4502
config *.car[*].app[2].UALCMPAddress "\"ualcmp\""
config *.car[*].app[2].UALCMPPort 1000
config *.car[*].app[2].appPackageSource "\"ApplicationDescriptors/PingPongApp.json\""
config *.car[*].app[3].typename UEPingPongApp
config *.car[*].app[3].name "\"Remote_driving\""
config *.car[*].app[3].deviceAppAddress "\"car[\"+string(ancestorIndex(1))+\"]\""
config *.car[*].app[3].deviceAppPort 4502
config *.car[*].app[3].startTime 1s
config *.car[*].app[3].localPort 4002
config *.car[*].app[3].payloadSize 12000
config *.car[*].app[3].interReqTime 0.01
config *.car[*].app[3].test 1
config *.car[*].app[3].mecAppName "\"Remote_driving_car[\"+string(ancestorIndex(1))+\"]\""
config **.numCars 1
config *.mecHost.maxMECApps 100000
config *.mecHost.maxRam 320000GB
config *.mecHost.maxDisk 200000TB
config *.mecHost.maxCpuSpeed 10000000
config **.maxCpuSpeed 100000
config *.gNodeB*.mecHost "\"mecHost\""
config *.mecHost.bsList "\"gNodeB1\""
config *.mecHost.mecPlatformManager.mecOrchestrator "\"mecOrchestrator\""
config *.mecHost.mecPlatform.numMecServices 1
config *.mecHost.mecPlatform.mecService[0].typename LocationService
config *.mecHost.mecPlatform.mecService[0].localAddress "\"mecHost.virtualisationInfrastructure\""
config *.mecHost.mecPlatform.mecService[0].localPort 10020
config *.mecHost.mecPlatform.mecService[0].rng-0 0
config *.mecHost.mecPlatform.mecService[0].rng-1 1
config *.mecHost.mecPlatform.mecService[0].requestServiceTime 100us
config *.mecHost.mecPlatform.mecService[0].subscriptionServiceTime 11us
config *.mecHost.mecPlatform.serviceRegistry.localAddress "\"mecHost.virtualisationInfrastructure\""
config *.mecHost.mecPlatform.serviceRegistry.localPort 10021
config *.mecHost.mecPlatform.serviceRegistry.rng-0 0
config *.mecHost.mecPlatform.serviceRegistry.rng-1 1
config **.mecOrchestrator.mecHostList "\"mecHost\""
config *.mecOrchestrator.mecApplicationPackageList "\"PingPongApp\""

vector 0 vehicularMecTest.upf.ppp[0].ppp transmissionState:vector ETV
attr interpolationmode sample-hold
attr recordingmode vector
attr source transmissionStateChanged
attr title "tx state"
vector 1 vehicularMecTest.upf.pppIf.ppp transmissionState:vector ETV
attr interpolationmode sample-hold
attr recordingmode vector
attr source transmissionStateChanged
attr title "tx state"
vector 2 vehicularMecTest.upf.udp passedUpPk:vector(count) ETV
attr interpolationmode none
attr recordingmode vector(count)
attr source packetSentToUpper
attr title "packets passed up, count"
vector 3 vehicularMecTest.upf.udp droppedPkWrongPort:vector(count) ETV
attr interpolationmode none
attr recordingmode vector(count)
attr source packetDropReasonIsNoPortFound(packetDropped)
attr title "packets dropped (wrong port), count"
vector 4 vehicularMecTest.upf.udp droppedPkBadChecksum:vector(count) ETV
attr interpolationmode none
attr recordingmode vector(count)
attr source packetDropReasonIsIncorrectlyReceived(packetDropped)
attr title "packets dropped (checksum error), count"
vector 5 vehicularMecTest.gNodeB1.pppIf.ppp transmissionState:vector ETV
attr interpolationmode sample-hold
attr recordingmode vector
attr source transmissionStateChanged
attr title "tx state"
vector 6 vehicularMecTest.gNodeB1.pppMEHostIf.ppp transmissionState:vector ETV
attr interpolationmode sample-hold
attr recordingmode vector
attr source transmissionStateChanged
attr title "tx state"
vector 7 vehicularMecTest.gNodeB1.udp passedUpPk:vector(count) ETV
attr interpolationmode none
attr recordingmode vector(count)
attr source packetSentToUpper
attr title "packets passed up, count"
vector 8 vehicularMecTest.gNodeB1.udp droppedPkWrongPort:vector(count) ETV
attr interpolationmode none
attr recordingmode vector(count)
attr source packetDropReasonIsNoPortFound(packetDropped)
attr title "packets dropped (wrong port), count"
vector 9 vehicularMecTest.gNodeB1.udp droppedPkBadChecksum:vector(count) ETV
attr interpolationmode none
attr recordingmode vector(count)
attr source packetDropReasonIsIncorrectlyReceived(packetDropped)
attr title "packets dropped (checksum error), count"
vector 10 vehicularMecTest.mecHost.virtualisationInfrastructure.pppIf[0].ppp transmissionState:vector ETV
attr interpolationmode sample-hold
attr recordingmode vector
attr source transmissionStateChanged
attr title "tx state"
vector 11 vehicularMecTest.mecHost.virtualisationInfrastructure.udp passedUpPk:vector(count) ETV
attr interpolationmode none
attr recordingmode vector(count)
attr source packetSentToUpper
attr title "packets passed up, count"
vector 12 vehicularMecTest.mecHost.virtualisationInfrastructure.udp droppedPkWrongPort:vector(count) ETV
attr interpolationmode none
attr recordingmode vector(count)
attr source packetDropReasonIsNoPortFound(packetDropped)
attr title "packets dropped (wrong port), count"
vector 13 vehicularMecTest.mecHost.virtualisationInfrastructure.udp droppedPkBadChecksum:vector(count) ETV
attr interpolationmode none
attr recordingmode vector(count)
attr source packetDropReasonIsIncorrectlyReceived(packetDropped)
attr title "packets dropped (checksum error), count"
vector 14 vehicularMecTest.mecHost.upf_mec.ppp[0].ppp transmissionState:vector ETV
attr interpolationmode sample-hold
attr recordingmode vector
attr source transmissionStateChanged
attr title "tx state"
vector 15 vehicularMecTest.mecHost.upf_mec.pppIf.ppp transmissionState:vector ETV
attr interpolationmode sample-hold
attr recordingmode vector
attr source transmissionStateChanged
attr title "tx state"
vector 16 vehicularMecTest.mecHost.upf_mec.udp passedUpPk:vector(count) ETV
attr interpolationmode none
attr recordingmode vector(count)
attr source packetSentToUpper
attr title "packets passed up, count"
vector 17 vehicularMecTest.mecHost.upf_mec.udp droppedPkWrongPort:vector(count) ETV
attr interpolationmode none
attr recordingmode vector(count)
attr source packetDropReasonIsNoPortFound(packetDropped)
attr title "packets dropped (wrong port), count"
vector 18 vehicularMecTest.mecHost.upf_mec.udp droppedPkBadChecksum:vector(count) ETV
attr interpolationmode none
attr recordingmode vector(count)
attr source packetDropReasonIsIncorrectlyReceived(packetDropped)
attr title "packets dropped (checksum error), count"
vector 19 vehicularMecTest.ualcmp.pppIf.ppp transmissionState:vector ETV
attr interpolationmode sample-hold
attr recordingmode vector
attr source transmissionStateChanged
attr title "tx state"
vector 20 vehicularMecTest.ualcmp.udp passedUpPk:vector(count) ETV
attr interpolationmode none
attr recordingmode vector(count)
attr source packetSentToUpper
attr title "packets passed up, count"
vector 21 vehicularMecTest.ualcmp.udp droppedPkWrongPort:vector(count) ETV
attr interpolationmode none
attr recordingmode vector(count)
attr source packetDropReasonIsNoPortFound(packetDropped)
attr title "packets dropped (wrong port), count"
vector 22 vehicularMecTest.ualcmp.udp droppedPkBadChecksum:vector(count) ETV
attr interpolationmode none
attr recordingmode vector(count)
attr source packetDropReasonIsIncorrectlyReceived(packetDropped)
attr title "packets dropped (checksum error), count"
vector 23 vehicularMecTest.gNodeB1.cellularNic.mac avgServedBlocksUl:vector ETV
attr recordingmode vector
attr source avgServedBlocksUl
attr title "Avg Served Blocks Ul"
attr unit blocks
vector 24 vehicularMecTest.gNodeB1.cellularNic.mac avgServedBlocksDl:vector ETV
attr recordingmode vector
attr source avgServedBlocksDl
attr title "Avg Served Blocks Dl"
attr unit blocks
vector 25 vehicularMecTest.car[0].udp passedUpPk:vector(count) ETV
attr interpolationmode none
attr recordingmode vector(count)
attr source packetSentToUpper
attr title "packets passed up, count"
vector 26 vehicularMecTest.car[0].udp droppedPkWrongPort:vector(count) ETV
attr interpolationmode none
attr recordingmode vector(count)
attr source packetDropReasonIsNoPortFound(packetDropped)
attr title "packets dropped (wrong port), count"
vector 27 vehicularMecTest.car[0].udp droppedPkBadChecksum:vector(count) ETV
attr interpolationmode none
attr recordingmode vector(count)
attr source packetDropReasonIsIncorrectlyReceived(packetDropped)
attr title "packets dropped (checksum error), count"
vector 28 vehicularMecTest.car[0].cellularNic.phy servingCell:vector ETV
attr recordingmode vector
attr source servingCell
attr title "ID of the serving eNodeB for the UE"
attr unit ""
vector 29 vehicularMecTest.car[0].cellularNic.nrPhy servingCell:vector ETV
attr recordingmode vector
attr source servingCell
attr title "ID of the serving eNodeB for the UE"
attr unit ""
vector 30 vehicularMecTest.car[0].veinsmobility posx ETV
vector 31 vehicularMecTest.car[0].veinsmobility posy ETV
vector 32 vehicularMecTest.car[1].udp passedUpPk:vector(count) ETV
attr interpolationmode none
attr recordingmode vector(count)
attr source packetSentToUpper
attr title "packets passed up, count"
vector 33 vehicularMecTest.car[1].udp droppedPkWrongPort:vector(count) ETV
attr interpolationmode none
attr recordingmode vector(count)
attr source packetDropReasonIsNoPortFound(packetDropped)
attr title "packets dropped (wrong port), count"
vector 34 vehicularMecTest.car[1].udp droppedPkBadChecksum:vector(count) ETV
attr interpolationmode none
attr recordingmode vector(count)
attr source packetDropReasonIsIncorrectlyReceived(packetDropped)
attr title "packets dropped (checksum error), count"
vector 35 vehicularMecTest.car[1].cellularNic.phy servingCell:vector ETV
attr recordingmode vector
attr source servingCell
attr title "ID of the serving eNodeB for the UE"
attr unit ""
vector 36 vehicularMecTest.car[1].cellularNic.nrPhy servingCell:vector ETV
attr recordingmode vector
attr source servingCell
attr title "ID of the serving eNodeB for the UE"
attr unit ""
vector 37 vehicularMecTest.car[1].veinsmobility posx ETV
vector 38 vehicularMecTest.car[1].veinsmobility posy ETV
vector 39 vehicularMecTest.car[2].udp passedUpPk:vector(count) ETV
attr interpolationmode none
attr recordingmode vector(count)
attr source packetSentToUpper
attr title "packets passed up, count"
vector 40 vehicularMecTest.car[2].udp droppedPkWrongPort:vector(count) ETV
attr interpolationmode none
attr recordingmode vector(count)
attr source packetDropReasonIsNoPortFound(packetDropped)
attr title "packets dropped (wrong port), count"
vector 41 vehicularMecTest.car[2].udp droppedPkBadChecksum:vector(count) ETV
attr interpolationmode none
attr recordingmode vector(count)
attr source packetDropReasonIsIncorrectlyReceived(packetDropped)
attr title "packets dropped (checksum error), count"
vector 42 vehicularMecTest.car[2].cellularNic.phy servingCell:vector ETV
attr recordingmode vector
attr source servingCell
attr title "ID of the serving eNodeB for the UE"
attr unit ""
vector 43 vehicularMecTest.car[2].cellularNic.nrPhy servingCell:vector ETV
attr recordingmode vector
attr source servingCell
attr title "ID of the serving eNodeB for the UE"
attr unit ""
vector 44 vehicularMecTest.car[2].veinsmobility posx ETV
vector 45 vehicularMecTest.car[2].veinsmobility posy ETV
vector 46 vehicularMecTest.car[3].udp passedUpPk:vector(count) ETV
attr interpolationmode none
attr recordingmode vector(count)
attr source packetSentToUpper
attr title "packets passed up, count"
vector 47 vehicularMecTest.car[3].udp droppedPkWrongPort:vector(count) ETV
attr interpolationmode none
attr recordingmode vector(count)
attr source packetDropReasonIsNoPortFound(packetDropped)
attr title "packets dropped (wrong port), count"
vector 48 vehicularMecTest.car[3].udp droppedPkBadChecksum:vector(count) ETV
attr interpolationmode none
attr recordingmode vector(count)
attr source packetDropReasonIsIncorrectlyReceived(packetDropped)
attr title "packets dropped (checksum error), count"
vector 49 vehicularMecTest.car[3].cellularNic.phy servingCell:vector ETV
attr recordingmode vector
attr source servingCell
attr title "ID of the serving eNodeB for the UE"
attr unit ""
vector 50 vehicularMecTest.car[3].cellularNic.nrPhy servingCell:vector ETV
attr recordingmode vector
attr source servingCell
attr title "ID of the serving eNodeB for the UE"
attr unit ""
vector 51 vehicularMecTest.car[3].veinsmobility posx ETV
vector 52 vehicularMecTest.car[3].veinsmobility posy ETV
vector 53 vehicularMecTest.car[4].udp passedUpPk:vector(count) ETV
attr interpolationmode none
attr recordingmode vector(count)
attr source packetSentToUpper
attr title "packets passed up, count"
vector 54 vehicularMecTest.car[4].udp droppedPkWrongPort:vector(count) ETV
attr interpolationmode none
attr recordingmode vector(count)
attr source packetDropReasonIsNoPortFound(packetDropped)
attr title "packets dropped (wrong port), count"
vector 55 vehicularMecTest.car[4].udp droppedPkBadChecksum:vector(count) ETV
attr interpolationmode none
attr recordingmode vector(count)
attr source packetDropReasonIsIncorrectlyReceived(packetDropped)
attr title "packets dropped (checksum error), count"
vector 56 vehicularMecTest.car[4].cellularNic.phy servingCell:vector ETV
attr recordingmode vector
attr source servingCell
attr title "ID of the serving eNodeB for the UE"
attr unit ""
vector 57 vehicularMecTest.car[4].cellularNic.nrPhy servingCell:vector ETV
attr recordingmode vector
attr source servingCell
attr title "ID of the serving eNodeB for the UE"
attr unit ""
vector 58 vehicularMecTest.car[4].veinsmobility posx ETV
vector 59 vehicularMecTest.car[4].veinsmobility posy ETV
vector 60 vehicularMecTest.car[5].udp passedUpPk:vector(count) ETV
attr interpolationmode none
attr recordingmode vector(count)
attr source packetSentToUpper
attr title "packets passed up, count"
vector 61 vehicularMecTest.car[5].udp droppedPkWrongPort:vector(count) ETV
attr interpolationmode none
attr recordingmode vector(count)
attr source packetDropReasonIsNoPortFound(packetDropped)
attr title "packets dropped (wrong port), count"
vector 62 vehicularMecTest.car[5].udp droppedPkBadChecksum:vector(count) ETV
attr interpolationmode none
attr recordingmode vector(count)
attr source packetDropReasonIsIncorrectlyReceived(packetDropped)
attr title "packets dropped (checksum error), count"
vector 63 vehicularMecTest.car[5].cellularNic.phy servingCell:vector ETV
attr recordingmode vector
attr source servingCell
attr title "ID of the serving eNodeB for the UE"
attr unit ""
vector 64 vehicularMecTest.car[5].cellularNic.nrPhy servingCell:vector ETV
attr recordingmode vector
attr source servingCell
attr title "ID of the serving eNodeB for the UE"
attr unit ""
vector 65 vehicularMecTest.car[5].veinsmobility posx ETV
vector 66 vehicularMecTest.car[5].veinsmobility posy ETV
vector 67 vehicularMecTest.car[6].udp passedUpPk:vector(count) ETV
attr interpolationmode none
attr recordingmode vector(count)
attr source packetSentToUpper
attr title "packets passed up, count"
vector 68 vehicularMecTest.car[6].udp droppedPkWrongPort:vector(count) ETV
attr interpolationmode none
attr recordingmode vector(count)
attr source packetDropReasonIsNoPortFound(packetDropped)
attr title "packets dropped (wrong port), count"
vector 69 vehicularMecTest.car[6].udp droppedPkBadChecksum:vector(count) ETV
attr interpolationmode none
attr recordingmode vector(count)
attr source packetDropReasonIsIncorrectlyReceived(packetDropped)
attr title "packets dropped (checksum error), count"
vector 70 vehicularMecTest.car[6].cellularNic.phy servingCell:vector ETV
attr recordingmode vector
attr source servingCell
attr title "ID of the serving eNodeB for the UE"
attr unit ""
vector 71 vehicularMecTest.car[6].cellularNic.nrPhy servingCell:vector ETV
attr recordingmode vector
attr source servingCell
attr title "ID of the serving eNodeB for the UE"
attr unit ""
vector 72 vehicularMecTest.car[6].veinsmobility posx ETV
vector 73 vehicularMecTest.car[6].veinsmobility posy ETV
vector 74 vehicularMecTest.car[7].udp passedUpPk:vector(count) ETV
attr interpolationmode none
attr recordingmode vector(count)
attr source packetSentToUpper
attr title "packets passed up, count"
vector 75 vehicularMecTest.car[7].udp droppedPkWrongPort:vector(count) ETV
attr interpolationmode none
attr recordingmode vector(count)
attr source packetDropReasonIsNoPortFound(packetDropped)
attr title "packets dropped (wrong port), count"
vector 76 vehicularMecTest.car[7].udp droppedPkBadChecksum:vector(count) ETV
attr interpolationmode none
attr recordingmode vector(count)
attr source packetDropReasonIsIncorrectlyReceived(packetDropped)
attr title "packets dropped (checksum error), count"
vector 77 vehicularMecTest.car[7].cellularNic.phy servingCell:vector ETV
attr recordingmode vector
attr source servingCell
attr title "ID of the serving eNodeB for the UE"
attr unit ""
vector 78 vehicularMecTest.car[7].cellularNic.nrPhy servingCell:vector ETV
attr recordingmode vector
attr source servingCell
attr title "ID of the serving eNodeB for the UE"
attr unit ""
vector 79 vehicularMecTest.car[7].veinsmobility posx ETV
vector 80 vehicularMecTest.car[7].veinsmobility posy ETV
vector 81 vehicularMecTest.car[8].udp passedUpPk:vector(count) ETV
attr interpolationmode none
attr recordingmode vector(count)
attr source packetSentToUpper
attr title "packets passed up, count"
vector 82 vehicularMecTest.car[8].udp droppedPkWrongPort:vector(count) ETV
attr interpolationmode none
attr recordingmode vector(count)
attr source packetDropReasonIsNoPortFound(packetDropped)
attr title "packets dropped (wrong port), count"
vector 83 vehicularMecTest.car[8].udp droppedPkBadChecksum:vector(count) ETV
attr interpolationmode none
attr recordingmode vector(count)
attr source packetDropReasonIsIncorrectlyReceived(packetDropped)
attr title "packets dropped (checksum error), count"
vector 84 vehicularMecTest.car[8].cellularNic.phy servingCell:vector ETV
attr recordingmode vector
attr source servingCell
attr title "ID of the serving eNodeB for the UE"
attr unit ""
vector 85 vehicularMecTest.car[8].cellularNic.nrPhy servingCell:vector ETV
attr recordingmode vector
attr source servingCell
attr title "ID of the serving eNodeB for the UE"
attr unit ""
vector 86 vehicularMecTest.car[8].veinsmobility posx ETV
vector 87 vehicularMecTest.car[8].veinsmobility posy ETV
vector 88 vehicularMecTest.car[9].udp passedUpPk:vector(count) ETV
attr interpolationmode none
attr recordingmode vector(count)
attr source packetSentToUpper
attr title "packets passed up, count"
vector 89 vehicularMecTest.car[9].udp droppedPkWrongPort:vector(count) ETV
attr interpolationmode none
attr recordingmode vector(count)
attr source packetDropReasonIsNoPortFound(packetDropped)
attr title "packets dropped (wrong port), count"
vector 90 vehicularMecTest.car[9].udp droppedPkBadChecksum:vector(count) ETV
attr interpolationmode none
attr recordingmode vector(count)
attr source packetDropReasonIsIncorrectlyReceived(packetDropped)
attr title "packets dropped (checksum error), count"
vector 91 vehicularMecTest.car[9].cellularNic.phy servingCell:vector ETV
attr recordingmode vector
attr source servingCell
attr title "ID of the serving eNodeB for the UE"
attr unit ""
vector 92 vehicularMecTest.car[9].cellularNic.nrPhy servingCell:vector ETV
attr recordingmode vector
attr source servingCell
attr title "ID of the serving eNodeB for the UE"
attr unit ""
vector 93 vehicularMecTest.car[9].veinsmobility posx ETV
vector 94 vehicularMecTest.car[9].veinsmobility posy ETV
vector 95 vehicularMecTest.car[10].udp passedUpPk:vector(count) ETV
attr interpolationmode none
attr recordingmode vector(count)
attr source packetSentToUpper
attr title "packets passed up, count"
vector 96 vehicularMecTest.car[10].udp droppedPkWrongPort:vector(count) ETV
attr interpolationmode none
attr recordingmode vector(count)
attr source packetDropReasonIsNoPortFound(packetDropped)
attr title "packets dropped (wrong port), count"
vector 97 vehicularMecTest.car[10].udp droppedPkBadChecksum:vector(count) ETV
attr interpolationmode none
attr recordingmode vector(count)
attr source packetDropReasonIsIncorrectlyReceived(packetDropped)
attr title "packets dropped (checksum error), count"
vector 98 vehicularMecTest.car[10].cellularNic.phy servingCell:vector ETV
attr recordingmode vector
attr source servingCell
attr title "ID of the serving eNodeB for the UE"
attr unit ""
vector 99 vehicularMecTest.car[10].cellularNic.nrPhy servingCell:vector ETV
attr recordingmode vector
attr source servingCell
attr title "ID of the serving eNodeB for the UE"
attr unit ""
vector 100 vehicularMecTest.car[10].veinsmobility posx ETV
vector 101 vehicularMecTest.car[10].veinsmobility posy ETV
vector 102 vehicularMecTest.car[11].udp passedUpPk:vector(count) ETV
attr interpolationmode none
attr recordingmode vector(count)
attr source packetSentToUpper
attr title "packets passed up, count"
vector 103 vehicularMecTest.car[11].udp droppedPkWrongPort:vector(count) ETV
attr interpolationmode none
attr recordingmode vector(count)
attr source packetDropReasonIsNoPortFound(packetDropped)
attr title "packets dropped (wrong port), count"
vector 104 vehicularMecTest.car[11].udp droppedPkBadChecksum:vector(count) ETV
attr interpolationmode none
attr recordingmode vector(count)
attr source packetDropReasonIsIncorrectlyReceived(packetDropped)
attr title "packets dropped (checksum error), count"
vector 105 vehicularMecTest.car[11].cellularNic.phy servingCell:vector ETV
attr recordingmode vector
attr source servingCell
attr title "ID of the serving eNodeB for the UE"
attr unit ""
vector 106 vehicularMecTest.car[11].cellularNic.nrPhy servingCell:vector ETV
attr recordingmode vector
attr source servingCell
attr title "ID of the serving eNodeB for the UE"
attr unit ""
vector 107 vehicularMecTest.car[11].veinsmobility posx ETV
vector 108 vehicularMecTest.car[11].veinsmobility posy ETV
vector 109 vehicularMecTest.car[12].udp passedUpPk:vector(count) ETV
attr interpolationmode none
attr recordingmode vector(count)
attr source packetSentToUpper
attr title "packets passed up, count"
vector 110 vehicularMecTest.car[12].udp droppedPkWrongPort:vector(count) ETV
attr interpolationmode none
attr recordingmode vector(count)
attr source packetDropReasonIsNoPortFound(packetDropped)
attr title "packets dropped (wrong port), count"
vector 111 vehicularMecTest.car[12].udp droppedPkBadChecksum:vector(count) ETV
attr interpolationmode none
attr recordingmode vector(count)
attr source packetDropReasonIsIncorrectlyReceived(packetDropped)
attr title "packets dropped (checksum error), count"
vector 112 vehicularMecTest.car[12].cellularNic.phy servingCell:vector ETV
attr recordingmode vector
attr source servingCell
attr title "ID of the serving eNodeB for the UE"
attr unit ""
vector 113 vehicularMecTest.car[12].cellularNic.nrPhy servingCell:vector ETV
attr recordingmode vector
attr source servingCell
attr title "ID of the serving eNodeB for the UE"
attr unit ""
vector 114 vehicularMecTest.car[12].veinsmobility posx ETV
vector 115 vehicularMecTest.car[12].veinsmobility posy ETV
vector 116 vehicularMecTest.car[13].udp passedUpPk:vector(count) ETV
attr interpolationmode none
attr recordingmode vector(count)
attr source packetSentToUpper
attr title "packets passed up, count"
vector 117 vehicularMecTest.car[13].udp droppedPkWrongPort:vector(count) ETV
attr interpolationmode none
attr recordingmode vector(count)
attr source packetDropReasonIsNoPortFound(packetDropped)
attr title "packets dropped (wrong port), count"
vector 118 vehicularMecTest.car[13].udp droppedPkBadChecksum:vector(count) ETV
attr interpolationmode none
attr recordingmode vector(count)
attr source packetDropReasonIsIncorrectlyReceived(packetDropped)
attr title "packets dropped (checksum error), count"
vector 119 vehicularMecTest.car[13].cellularNic.phy servingCell:vector ETV
attr recordingmode vector
attr source servingCell
attr title "ID of the serving eNodeB for the UE"
attr unit ""
vector 120 vehicularMecTest.car[13].cellularNic.nrPhy servingCell:vector ETV
attr recordingmode vector
attr source servingCell
attr title "ID of the serving eNodeB for the UE"
attr unit ""
vector 121 vehicularMecTest.car[13].veinsmobility posx ETV
vector 122 vehicularMecTest.car[13].veinsmobility posy ETV
vector 123 vehicularMecTest.car[14].udp passedUpPk:vector(count) ETV
attr interpolationmode none
attr recordingmode vector(count)
attr source packetSentToUpper
attr title "packets passed up, count"
vector 124 vehicularMecTest.car[14].udp droppedPkWrongPort:vector(count) ETV
attr interpolationmode none
attr recordingmode vector(count)
attr source packetDropReasonIsNoPortFound(packetDropped)
attr title "packets dropped (wrong port), count"
vector 125 vehicularMecTest.car[14].udp droppedPkBadChecksum:vector(count) ETV
attr interpolationmode none
attr recordingmode vector(count)
attr source packetDropReasonIsIncorrectlyReceived(packetDropped)
attr title "packets dropped (checksum error), count"
vector 126 vehicularMecTest.car[14].cellularNic.phy servingCell:vector ETV
attr recordingmode vector
attr source servingCell
attr title "ID of the serving eNodeB for the UE"
attr unit ""
vector 127 vehicularMecTest.car[14].cellularNic.nrPhy servingCell:vector ETV
attr recordingmode vector
attr source servingCell
attr title "ID of the serving eNodeB for the UE"
attr unit ""
vector 128 vehicularMecTest.car[14].veinsmobility posx ETV
vector 129 vehicularMecTest.car[14].veinsmobility posy ETV
vector 130 vehicularMecTest.car[15].udp passedUpPk:vector(count) ETV
attr interpolationmode none
attr recordingmode vector(count)
attr source packetSentToUpper
attr title "packets passed up, count"
vector 131 vehicularMecTest.car[15].udp droppedPkWrongPort:vector(count) ETV
attr interpolationmode none
attr recordingmode vector(count)
attr source packetDropReasonIsNoPortFound(packetDropped)
attr title "packets dropped (wrong port), count"
vector 132 vehicularMecTest.car[15].udp droppedPkBadChecksum:vector(count) ETV
attr interpolationmode none
attr recordingmode vector(count)
attr source packetDropReasonIsIncorrectlyReceived(packetDropped)
attr title "packets dropped (checksum error), count"
vector 133 vehicularMecTest.car[15].cellularNic.phy servingCell:vector ETV
attr recordingmode vector
attr source servingCell
attr title "ID of the serving eNodeB for the UE"
attr unit ""
vector 134 vehicularMecTest.car[15].cellularNic.nrPhy servingCell:vector ETV
attr recordingmode vector
attr source servingCell
attr title "ID of the serving eNodeB for the UE"
attr unit ""
vector 135 vehicularMecTest.car[15].veinsmobility posx ETV
vector 136 vehicularMecTest.car[15].veinsmobility posy ETV
vector 137 vehicularMecTest.car[16].udp passedUpPk:vector(count) ETV
attr interpolationmode none
attr recordingmode vector(count)
attr source packetSentToUpper
attr title "packets passed up, count"
vector 138 vehicularMecTest.car[16].udp droppedPkWrongPort:vector(count) ETV
attr interpolationmode none
attr recordingmode vector(count)
attr source packetDropReasonIsNoPortFound(packetDropped)
attr title "packets dropped (wrong port), count"
vector 139 vehicularMecTest.car[16].udp droppedPkBadChecksum:vector(count) ETV
attr interpolationmode none
attr recordingmode vector(count)
attr source packetDropReasonIsIncorrectlyReceived(packetDropped)
attr title "packets dropped (checksum error), count"
vector 140 vehicularMecTest.car[16].cellularNic.phy servingCell:vector ETV
attr recordingmode vector
attr source servingCell
attr title "ID of the serving eNodeB for the UE"
attr unit ""
vector 141 vehicularMecTest.car[16].cellularNic.nrPhy servingCell:vector ETV
attr recordingmode vector
attr source servingCell
attr title "ID of the serving eNodeB for the UE"
attr unit ""
vector 142 vehicularMecTest.car[16].veinsmobility posx ETV
vector 143 vehicularMecTest.car[16].veinsmobility posy ETV
vector 144 vehicularMecTest.car[17].udp passedUpPk:vector(count) ETV
attr interpolationmode none
attr recordingmode vector(count)
attr source packetSentToUpper
attr title "packets passed up, count"
vector 145 vehicularMecTest.car[17].udp droppedPkWrongPort:vector(count) ETV
attr interpolationmode none
attr recordingmode vector(count)
attr source packetDropReasonIsNoPortFound(packetDropped)
attr title "packets dropped (wrong port), count"
vector 146 vehicularMecTest.car[17].udp droppedPkBadChecksum:vector(count) ETV
attr interpolationmode none
attr recordingmode vector(count)
attr source packetDropReasonIsIncorrectlyReceived(packetDropped)
attr title "packets dropped (checksum error), count"
vector 147 vehicularMecTest.car[17].cellularNic.phy servingCell:vector ETV
attr recordingmode vector
attr source servingCell
attr title "ID of the serving eNodeB for the UE"
attr unit ""
vector 148 vehicularMecTest.car[17].cellularNic.nrPhy servingCell:vector ETV
attr recordingmode vector
attr source servingCell
attr title "ID of the serving eNodeB for the UE"
attr unit ""
vector 149 vehicularMecTest.car[17].veinsmobility posx ETV
vector 150 vehicularMecTest.car[17].veinsmobility posy ETV
vector 151 vehicularMecTest.car[18].udp passedUpPk:vector(count) ETV
attr interpolationmode none
attr recordingmode vector(count)
attr source packetSentToUpper
attr title "packets passed up, count"
vector 152 vehicularMecTest.car[18].udp droppedPkWrongPort:vector(count) ETV
attr interpolationmode none
attr recordingmode vector(count)
attr source packetDropReasonIsNoPortFound(packetDropped)
attr title "packets dropped (wrong port), count"
vector 153 vehicularMecTest.car[18].udp droppedPkBadChecksum:vector(count) ETV
attr interpolationmode none
attr recordingmode vector(count)
attr source packetDropReasonIsIncorrectlyReceived(packetDropped)
attr title "packets dropped (checksum error), count"
vector 154 vehicularMecTest.car[18].cellularNic.phy servingCell:vector ETV
attr recordingmode vector
attr source servingCell
attr title "ID of the serving eNodeB for the UE"
attr unit ""
vector 155 vehicularMecTest.car[18].cellularNic.nrPhy servingCell:vector ETV
attr recordingmode vector
attr source servingCell
attr title "ID of the serving eNodeB for the UE"
attr unit ""
vector 156 vehicularMecTest.car[18].veinsmobility posx ETV
vector 157 vehicularMecTest.car[18].veinsmobility posy ETV
vector 158 vehicularMecTest.car[0].tcp.conn-93 tcpRcvQueueBytes:vector ETV
attr interpolationmode sample-hold
attr recordingmode vector
vector 159 vehicularMecTest.car[0].tcp.conn-93 rcvAdv:vector ETV
attr interpolationmode sample-hold
attr recordingmode vector
vector 160 vehicularMecTest.car[0].tcp.conn-93 rcvWnd:vector ETV
attr interpolationmode sample-hold
attr recordingmode vector
vector 161 vehicularMecTest.car[0].tcp.conn-93 sndAck:vector ETV
attr interpolationmode sample-hold
attr recordingmode vector
vector 162 vehicularMecTest.car[1].tcp.conn-94 tcpRcvQueueBytes:vector ETV
attr interpolationmode sample-hold
attr recordingmode vector
vector 163 vehicularMecTest.car[1].tcp.conn-94 rcvAdv:vector ETV
attr interpolationmode sample-hold
attr recordingmode vector
vector 164 vehicularMecTest.car[1].tcp.conn-94 rcvWnd:vector ETV
attr interpolationmode sample-hold
attr recordingmode vector
vector 165 vehicularMecTest.car[1].tcp.conn-94 sndAck:vector ETV
attr interpolationmode sample-hold
attr recordingmode vector
vector 166 vehicularMecTest.car[2].tcp.conn-95 tcpRcvQueueBytes:vector ETV
attr interpolationmode sample-hold
attr recordingmode vector
vector 167 vehicularMecTest.car[2].tcp.conn-95 rcvAdv:vector ETV
attr interpolationmode sample-hold
attr recordingmode vector
vector 168 vehicularMecTest.car[2].tcp.conn-95 rcvWnd:vector ETV
attr interpolationmode sample-hold
attr recordingmode vector
vector 169 vehicularMecTest.car[2].tcp.conn-95 sndAck:vector ETV
attr interpolationmode sample-hold
attr recordingmode vector
vector 170 vehicularMecTest.car[3].tcp.conn-96 tcpRcvQueueBytes:vector ETV
attr interpolationmode sample-hold
attr recordingmode vector
vector 171 vehicularMecTest.car[3].tcp.conn-96 rcvAdv:vector ETV
attr interpolationmode sample-hold
attr recordingmode vector
vector 172 vehicularMecTest.car[3].tcp.conn-96 rcvWnd:vector ETV
attr interpolationmode sample-hold
attr recordingmode vector
vector 173 vehicularMecTest.car[3].tcp.conn-96 sndAck:vector ETV
attr interpolationmode sample-hold
attr recordingmode vector
vector 174 vehicularMecTest.car[4].tcp.conn-97 tcpRcvQueueBytes:vector ETV
attr interpolationmode sample-hold
attr recordingmode vector
vector 175 vehicularMecTest.car[4].tcp.conn-97 rcvAdv:vector ETV
attr interpolationmode sample-hold
attr recordingmode vector
vector 176 vehicularMecTest.car[4].tcp.conn-97 rcvWnd:vector ETV
attr interpolationmode sample-hold
attr recordingmode vector
vector 177 vehicularMecTest.car[4].tcp.conn-97 sndAck:vector ETV
attr interpolationmode sample-hold
attr recordingmode vector
vector 178 vehicularMecTest.car[5].tcp.conn-98 tcpRcvQueueBytes:vector ETV
attr interpolationmode sample-hold
attr recordingmode vector
vector 179 vehicularMecTest.car[5].tcp.conn-98 rcvAdv:vector ETV
attr interpolationmode sample-hold
attr recordingmode vector
vector 180 vehicularMecTest.car[5].tcp.conn-98 rcvWnd:vector ETV
attr interpolationmode sample-hold
attr recordingmode vector
vector 181 vehicularMecTest.car[5].tcp.conn-98 sndAck:vector ETV
attr interpolationmode sample-hold
attr recordingmode vector
vector 182 vehicularMecTest.car[6].tcp.conn-99 tcpRcvQueueBytes:vector ETV
attr interpolationmode sample-hold
attr recordingmode vector
vector 183 vehicularMecTest.car[6].tcp.conn-99 rcvAdv:vector ETV
attr interpolationmode sample-hold
attr recordingmode vector
vector 184 vehicularMecTest.car[6].tcp.conn-99 rcvWnd:vector ETV
attr interpolationmode sample-hold
attr recordingmode vector
vector 185 vehicularMecTest.car[6].tcp.conn-99 sndAck:vector ETV
attr interpolationmode sample-hold
attr recordingmode vector
vector 186 vehicularMecTest.car[7].tcp.conn-100 tcpRcvQueueBytes:vector ETV
attr interpolationmode sample-hold
attr recordingmode vector
vector 187 vehicularMecTest.car[7].tcp.conn-100 rcvAdv:vector ETV
attr interpolationmode sample-hold
attr recordingmode vector
vector 188 vehicularMecTest.car[7].tcp.conn-100 rcvWnd:vector ETV
attr interpolationmode sample-hold
attr recordingmode vector
vector 189 vehicularMecTest.car[7].tcp.conn-100 sndAck:vector ETV
attr interpolationmode sample-hold
attr recordingmode vector
vector 190 vehicularMecTest.car[8].tcp.conn-101 tcpRcvQueueBytes:vector ETV
attr interpolationmode sample-hold
attr recordingmode vector
vector 191 vehicularMecTest.car[8].tcp.conn-101 rcvAdv:vector ETV
attr interpolationmode sample-hold
attr recordingmode vector
vector 192 vehicularMecTest.car[8].tcp.conn-101 rcvWnd:vector ETV
attr interpolationmode sample-hold
attr recordingmode vector
vector 193 vehicularMecTest.car[8].tcp.conn-101 sndAck:vector ETV
attr interpolationmode sample-hold
attr recordingmode vector
vector 194 vehicularMecTest.car[9].tcp.conn-102 tcpRcvQueueBytes:vector ETV
attr interpolationmode sample-hold
attr recordingmode vector
vector 195 vehicularMecTest.car[9].tcp.conn-102 rcvAdv:vector ETV
attr interpolationmode sample-hold
attr recordingmode vector
vector 196 vehicularMecTest.car[9].tcp.conn-102 rcvWnd:vector ETV
attr interpolationmode sample-hold
attr recordingmode vector
vector 197 vehicularMecTest.car[9].tcp.conn-102 sndAck:vector ETV
attr interpolationmode sample-hold
attr recordingmode vector
vector 198 vehicularMecTest.car[10].tcp.conn-103 tcpRcvQueueBytes:vector ETV
attr interpolationmode sample-hold
attr recordingmode vector
vector 199 vehicularMecTest.car[10].tcp.conn-103 rcvAdv:vector ETV
attr interpolationmode sample-hold
attr recordingmode vector
vector 200 vehicularMecTest.car[10].tcp.conn-103 rcvWnd:vector ETV
attr interpolationmode sample-hold
attr recordingmode vector
vector 201 vehicularMecTest.car[10].tcp.conn-103 sndAck:vector ETV
attr interpolationmode sample-hold
attr recordingmode vector
vector 202 vehicularMecTest.car[11].tcp.conn-104 tcpRcvQueueBytes:vector ETV
attr interpolationmode sample-hold
attr recordingmode vector
vector 203 vehicularMecTest.car[11].tcp.conn-104 rcvAdv:vector ETV
attr interpolationmode sample-hold
attr recordingmode vector
vector 204 vehicularMecTest.car[11].tcp.conn-104 rcvWnd:vector ETV
attr interpolationmode sample-hold
attr recordingmode vector
vector 205 vehicularMecTest.car[11].tcp.conn-104 sndAck:vector ETV
attr interpolationmode sample-hold
attr recordingmode vector
vector 206 vehicularMecTest.car[12].tcp.conn-105 tcpRcvQueueBytes:vector ETV
attr interpolationmode sample-hold
attr recordingmode vector
vector 207 vehicularMecTest.car[12].tcp.conn-105 rcvAdv:vector ETV
attr interpolationmode sample-hold
attr recordingmode vector
vector 208 vehicularMecTest.car[12].tcp.conn-105 rcvWnd:vector ETV
attr interpolationmode sample-hold
attr recordingmode vector
vector 209 vehicularMecTest.car[12].tcp.conn-105 sndAck:vector ETV
attr interpolationmode sample-hold
attr recordingmode vector
vector 210 vehicularMecTest.car[13].tcp.conn-106 tcpRcvQueueBytes:vector ETV
attr interpolationmode sample-hold
attr recordingmode vector
vector 211 vehicularMecTest.car[13].tcp.conn-106 rcvAdv:vector ETV
attr interpolationmode sample-hold
attr recordingmode vector
vector 212 vehicularMecTest.car[13].tcp.conn-106 rcvWnd:vector ETV
attr interpolationmode sample-hold
attr recordingmode vector
vector 213 vehicularMecTest.car[13].tcp.conn-106 sndAck:vector ETV
attr interpolationmode sample-hold
attr recordingmode vector
vector 214 vehicularMecTest.car[14].tcp.conn-107 tcpRcvQueueBytes:vector ETV
attr interpolationmode sample-hold
attr recordingmode vector
vector 215 vehicularMecTest.car[14].tcp.conn-107 rcvAdv:vector ETV
attr interpolationmode sample-hold
attr recordingmode vector
vector 216 vehicularMecTest.car[14].tcp.conn-107 rcvWnd:vector ETV
attr interpolationmode sample-hold
attr recordingmode vector
vector 217 vehicularMecTest.car[14].tcp.conn-107 sndAck:vector ETV
attr interpolationmode sample-hold
attr recordingmode vector
vector 218 vehicularMecTest.car[15].tcp.conn-108 tcpRcvQueueBytes:vector ETV
attr interpolationmode sample-hold
attr recordingmode vector
vector 219 vehicularMecTest.car[15].tcp.conn-108 rcvAdv:vector ETV
attr interpolationmode sample-hold
attr recordingmode vector
vector 220 vehicularMecTest.car[15].tcp.conn-108 rcvWnd:vector ETV
attr interpolationmode sample-hold
attr recordingmode vector
vector 221 vehicularMecTest.car[15].tcp.conn-108 sndAck:vector ETV
attr interpolationmode sample-hold
attr recordingmode vector
vector 222 vehicularMecTest.car[16].tcp.conn-109 tcpRcvQueueBytes:vector ETV
attr interpolationmode sample-hold
attr recordingmode vector
vector 223 vehicularMecTest.car[16].tcp.conn-109 rcvAdv:vector ETV
attr interpolationmode sample-hold
attr recordingmode vector
vector 224 vehicularMecTest.car[16].tcp.conn-109 rcvWnd:vector ETV
attr interpolationmode sample-hold
attr recordingmode vector
vector 225 vehicularMecTest.car[16].tcp.conn-109 sndAck:vector ETV
attr interpolationmode sample-hold
attr recordingmode vector
vector 226 vehicularMecTest.car[17].tcp.conn-110 tcpRcvQueueBytes:vector ETV
attr interpolationmode sample-hold
attr recordingmode vector
vector 227 vehicularMecTest.car[17].tcp.conn-110 rcvAdv:vector ETV
attr interpolationmode sample-hold
attr recordingmode vector
vector 228 vehicularMecTest.car[17].tcp.conn-110 rcvWnd:vector ETV
attr interpolationmode sample-hold
attr recordingmode vector
vector 229 vehicularMecTest.car[17].tcp.conn-110 sndAck:vector ETV
attr interpolationmode sample-hold
attr recordingmode vector
vector 230 vehicularMecTest.car[18].tcp.conn-111 tcpRcvQueueBytes:vector ETV
attr interpolationmode sample-hold
attr recordingmode vector
vector 231 vehicularMecTest.car[18].tcp.conn-111 rcvAdv:vector ETV
attr interpolationmode sample-hold
attr recordingmode vector
vector 232 vehicularMecTest.car[18].tcp.conn-111 rcvWnd:vector ETV
attr interpolationmode sample-hold
attr recordingmode vector
vector 233 vehicularMecTest.car[18].tcp.conn-111 sndAck:vector ETV
attr interpolationmode sample-hold
attr recordingmode vector
vector 234 vehicularMecTest.car[0].cellularNic.pdcpRrc receivedPacketFromUpperLayer:vector(packetBytes) ETV
attr interpolationmode none
attr recordingmode vector(packetBytes)
attr source receivedPacketFromUpperLayer
vector 235 vehicularMecTest.car[0].cellularNic.pdcpRrc sentPacketToLowerLayer:vector(packetBytes) ETV
attr interpolationmode none
attr recordingmode vector(packetBytes)
attr source sentPacketToLowerLayer
vector 236 vehicularMecTest.car[1].cellularNic.pdcpRrc receivedPacketFromUpperLayer:vector(packetBytes) ETV
attr interpolationmode none
attr recordingmode vector(packetBytes)
attr source receivedPacketFromUpperLayer
vector 237 vehicularMecTest.car[1].cellularNic.pdcpRrc sentPacketToLowerLayer:vector(packetBytes) ETV
attr interpolationmode none
attr recordingmode vector(packetBytes)
attr source sentPacketToLowerLayer
vector 238 vehicularMecTest.car[2].cellularNic.pdcpRrc receivedPacketFromUpperLayer:vector(packetBytes) ETV
attr interpolationmode none
attr recordingmode vector(packetBytes)
attr source receivedPacketFromUpperLayer
vector 239 vehicularMecTest.car[2].cellularNic.pdcpRrc sentPacketToLowerLayer:vector(packetBytes) ETV
attr interpolationmode none
attr recordingmode vector(packetBytes)
attr source sentPacketToLowerLayer
vector 240 vehicularMecTest.car[3].cellularNic.pdcpRrc receivedPacketFromUpperLayer:vector(packetBytes) ETV
attr interpolationmode none
attr recordingmode vector(packetBytes)
attr source receivedPacketFromUpperLayer
vector 241 vehicularMecTest.car[3].cellularNic.pdcpRrc sentPacketToLowerLayer:vector(packetBytes) ETV
attr interpolationmode none
attr recordingmode vector(packetBytes)
attr source sentPacketToLowerLayer
vector 242 vehicularMecTest.car[4].cellularNic.pdcpRrc receivedPacketFromUpperLayer:vector(packetBytes) ETV
attr interpolationmode none
attr recordingmode vector(packetBytes)
attr source receivedPacketFromUpperLayer
vector 243 vehicularMecTest.car[4].cellularNic.pdcpRrc sentPacketToLowerLayer:vector(packetBytes) ETV
attr interpolationmode none
attr recordingmode vector(packetBytes)
attr source sentPacketToLowerLayer
vector 244 vehicularMecTest.car[5].cellularNic.pdcpRrc receivedPacketFromUpperLayer:vector(packetBytes) ETV
attr interpolationmode none
attr recordingmode vector(packetBytes)
attr source receivedPacketFromUpperLayer
vector 245 vehicularMecTest.car[5].cellularNic.pdcpRrc sentPacketToLowerLayer:vector(packetBytes) ETV
attr interpolationmode none
attr recordingmode vector(packetBytes)
attr source sentPacketToLowerLayer
vector 246 vehicularMecTest.car[6].cellularNic.pdcpRrc receivedPacketFromUpperLayer:vector(packetBytes) ETV
attr interpolationmode none
attr recordingmode vector(packetBytes)
attr source receivedPacketFromUpperLayer
vector 247 vehicularMecTest.car[6].cellularNic.pdcpRrc sentPacketToLowerLayer:vector(packetBytes) ETV
attr interpolationmode none
attr recordingmode vector(packetBytes)
attr source sentPacketToLowerLayer
vector 248 vehicularMecTest.car[7].cellularNic.pdcpRrc receivedPacketFromUpperLayer:vector(packetBytes) ETV
attr interpolationmode none
attr recordingmode vector(packetBytes)
attr source receivedPacketFromUpperLayer
vector 249 vehicularMecTest.car[7].cellularNic.pdcpRrc sentPacketToLowerLayer:vector(packetBytes) ETV
attr interpolationmode none
attr recordingmode vector(packetBytes)
attr source sentPacketToLowerLayer
vector 250 vehicularMecTest.car[8].cellularNic.pdcpRrc receivedPacketFromUpperLayer:vector(packetBytes) ETV
attr interpolationmode none
attr recordingmode vector(packetBytes)
attr source receivedPacketFromUpperLayer
vector 251 vehicularMecTest.car[8].cellularNic.pdcpRrc sentPacketToLowerLayer:vector(packetBytes) ETV
attr interpolationmode none
attr recordingmode vector(packetBytes)
attr source sentPacketToLowerLayer
vector 252 vehicularMecTest.car[9].cellularNic.pdcpRrc receivedPacketFromUpperLayer:vector(packetBytes) ETV
attr interpolationmode none
attr recordingmode vector(packetBytes)
attr source receivedPacketFromUpperLayer
vector 253 vehicularMecTest.car[9].cellularNic.pdcpRrc sentPacketToLowerLayer:vector(packetBytes) ETV
attr interpolationmode none
attr recordingmode vector(packetBytes)
attr source sentPacketToLowerLayer
vector 254 vehicularMecTest.car[10].cellularNic.pdcpRrc receivedPacketFromUpperLayer:vector(packetBytes) ETV
attr interpolationmode none
attr recordingmode vector(packetBytes)
attr source receivedPacketFromUpperLayer
vector 255 vehicularMecTest.car[10].cellularNic.pdcpRrc sentPacketToLowerLayer:vector(packetBytes) ETV
attr interpolationmode none
attr recordingmode vector(packetBytes)
attr source sentPacketToLowerLayer
vector 256 vehicularMecTest.car[11].cellularNic.pdcpRrc receivedPacketFromUpperLayer:vector(packetBytes) ETV
attr interpolationmode none
attr recordingmode vector(packetBytes)
attr source receivedPacketFromUpperLayer
vector 257 vehicularMecTest.car[11].cellularNic.pdcpRrc sentPacketToLowerLayer:vector(packetBytes) ETV
attr interpolationmode none
attr recordingmode vector(packetBytes)
attr source sentPacketToLowerLayer
vector 258 vehicularMecTest.car[12].cellularNic.pdcpRrc receivedPacketFromUpperLayer:vector(packetBytes) ETV
attr interpolationmode none
attr recordingmode vector(packetBytes)
attr source receivedPacketFromUpperLayer
vector 259 vehicularMecTest.car[12].cellularNic.pdcpRrc sentPacketToLowerLayer:vector(packetBytes) ETV
attr interpolationmode none
attr recordingmode vector(packetBytes)
attr source sentPacketToLowerLayer
vector 260 vehicularMecTest.car[13].cellularNic.pdcpRrc receivedPacketFromUpperLayer:vector(packetBytes) ETV
attr interpolationmode none
attr recordingmode vector(packetBytes)
attr source receivedPacketFromUpperLayer
vector 261 vehicularMecTest.car[13].cellularNic.pdcpRrc sentPacketToLowerLayer:vector(packetBytes) ETV
attr interpolationmode none
attr recordingmode vector(packetBytes)
attr source sentPacketToLowerLayer
vector 262 vehicularMecTest.car[14].cellularNic.pdcpRrc receivedPacketFromUpperLayer:vector(packetBytes) ETV
attr interpolationmode none
attr recordingmode vector(packetBytes)
attr source receivedPacketFromUpperLayer
vector 263 vehicularMecTest.car[14].cellularNic.pdcpRrc sentPacketToLowerLayer:vector(packetBytes) ETV
attr interpolationmode none
attr recordingmode vector(packetBytes)
attr source sentPacketToLowerLayer
vector 264 vehicularMecTest.car[15].cellularNic.pdcpRrc receivedPacketFromUpperLayer:vector(packetBytes) ETV
attr interpolationmode none
attr recordingmode vector(packetBytes)
attr source receivedPacketFromUpperLayer
vector 265 vehicularMecTest.car[15].cellularNic.pdcpRrc sentPacketToLowerLayer:vector(packetBytes) ETV
attr interpolationmode none
attr recordingmode vector(packetBytes)
attr source sentPacketToLowerLayer
vector 266 vehicularMecTest.car[16].cellularNic.pdcpRrc receivedPacketFromUpperLayer:vector(packetBytes) ETV
attr interpolationmode none
attr recordingmode vector(packetBytes)
attr source receivedPacketFromUpperLayer
vector 267 vehicularMecTest.car[16].cellularNic.pdcpRrc sentPacketToLowerLayer:vector(packetBytes) ETV
attr interpolationmode none
attr recordingmode vector(packetBytes)
attr source sentPacketToLowerLayer
vector 268 vehicularMecTest.car[17].cellularNic.pdcpRrc receivedPacketFromUpperLayer:vector(packetBytes) ETV
attr interpolationmode none
attr recordingmode vector(packetBytes)
attr source receivedPacketFromUpperLayer
vector 269 vehicularMecTest.car[17].cellularNic.pdcpRrc sentPacketToLowerLayer:vector(packetBytes) ETV
attr interpolationmode none
attr recordingmode vector(packetBytes)
attr source sentPacketToLowerLayer
vector 270 vehicularMecTest.car[18].cellularNic.pdcpRrc receivedPacketFromUpperLayer:vector(packetBytes) ETV
attr interpolationmode none
attr recordingmode vector(packetBytes)
attr source receivedPacketFromUpperLayer
vector 271 vehicularMecTest.car[18].cellularNic.pdcpRrc sentPacketToLowerLayer:vector(packetBytes) ETV
attr interpolationmode none
attr recordingmode vector(packetBytes)
attr source sentPacketToLowerLayer
vector 272 vehicularMecTest.car[0].cellularNic.nrRlc.um receivedPacketFromUpperLayer:vector(packetBytes) ETV
attr interpolationmode none
attr recordingmode vector(packetBytes)
attr source receivedPacketFromUpperLayer
vector 273 vehicularMecTest.car[1].cellularNic.nrRlc.um receivedPacketFromUpperLayer:vector(packetBytes) ETV
attr interpolationmode none
attr recordingmode vector(packetBytes)
attr source receivedPacketFromUpperLayer
vector 274 vehicularMecTest.car[2].cellularNic.nrRlc.um receivedPacketFromUpperLayer:vector(packetBytes) ETV
attr interpolationmode none
attr recordingmode vector(packetBytes)
attr source receivedPacketFromUpperLayer
vector 275 vehicularMecTest.car[3].cellularNic.nrRlc.um receivedPacketFromUpperLayer:vector(packetBytes) ETV
attr interpolationmode none
attr recordingmode vector(packetBytes)
attr source receivedPacketFromUpperLayer
vector 276 vehicularMecTest.car[4].cellularNic.nrRlc.um receivedPacketFromUpperLayer:vector(packetBytes) ETV
attr interpolationmode none
attr recordingmode vector(packetBytes)
attr source receivedPacketFromUpperLayer
vector 277 vehicularMecTest.car[5].cellularNic.nrRlc.um receivedPacketFromUpperLayer:vector(packetBytes) ETV
attr interpolationmode none
attr recordingmode vector(packetBytes)
attr source receivedPacketFromUpperLayer
vector 278 vehicularMecTest.car[6].cellularNic.nrRlc.um receivedPacketFromUpperLayer:vector(packetBytes) ETV
attr interpolationmode none
attr recordingmode vector(packetBytes)
attr source receivedPacketFromUpperLayer
vector 279 vehicularMecTest.car[7].cellularNic.nrRlc.um receivedPacketFromUpperLayer:vector(packetBytes) ETV
attr interpolationmode none
attr recordingmode vector(packetBytes)
attr source receivedPacketFromUpperLayer
vector 280 vehicularMecTest.car[8].cellularNic.nrRlc.um receivedPacketFromUpperLayer:vector(packetBytes) ETV
attr interpolationmode none
attr recordingmode vector(packetBytes)
attr source receivedPacketFromUpperLayer
vector 281 vehicularMecTest.car[9].cellularNic.nrRlc.um receivedPacketFromUpperLayer:vector(packetBytes) ETV
attr interpolationmode none
attr recordingmode vector(packetBytes)
attr source receivedPacketFromUpperLayer
vector 282 vehicularMecTest.car[10].cellularNic.nrRlc.um receivedPacketFromUpperLayer:vector(packetBytes) ETV
attr interpolationmode none
attr recordingmode vector(packetBytes)
attr source receivedPacketFromUpperLayer
vector 283 vehicularMecTest.car[11].cellularNic.nrRlc.um receivedPacketFromUpperLayer:vector(packetBytes) ETV
attr interpolationmode none
attr recordingmode vector(packetBytes)
attr source receivedPacketFromUpperLayer
vector 284 vehicularMecTest.car[12].cellularNic.nrRlc.um receivedPacketFromUpperLayer:vector(packetBytes) ETV
attr interpolationmode none
attr recordingmode vector(packetBytes)
attr source receivedPacketFromUpperLayer
vector 285 vehicularMecTest.car[13].cellularNic.nrRlc.um receivedPacketFromUpperLayer:vector(packetBytes) ETV
attr interpolationmode none
attr recordingmode vector(packetBytes)
attr source receivedPacketFromUpperLayer
vector 286 vehicularMecTest.car[14].cellularNic.nrRlc.um receivedPacketFromUpperLayer:vector(packetBytes) ETV
attr interpolationmode none
attr recordingmode vector(packetBytes)
attr source receivedPacketFromUpperLayer
vector 287 vehicularMecTest.car[15].cellularNic.nrRlc.um receivedPacketFromUpperLayer:vector(packetBytes) ETV
attr interpolationmode none
attr recordingmode vector(packetBytes)
attr source receivedPacketFromUpperLayer
vector 288 vehicularMecTest.car[16].cellularNic.nrRlc.um receivedPacketFromUpperLayer:vector(packetBytes) ETV
attr interpolationmode none
attr recordingmode vector(packetBytes)
attr source receivedPacketFromUpperLayer
vector 289 vehicularMecTest.car[17].cellularNic.nrRlc.um receivedPacketFromUpperLayer:vector(packetBytes) ETV
attr interpolationmode none
attr recordingmode vector(packetBytes)
attr source receivedPacketFromUpperLayer
vector 290 vehicularMecTest.car[18].cellularNic.nrRlc.um receivedPacketFromUpperLayer:vector(packetBytes) ETV
attr interpolationmode none
attr recordingmode vector(packetBytes)
attr source receivedPacketFromUpperLayer
vector 291 vehicularMecTest.car[0].cellularNic.nrMac receivedPacketFromUpperLayer:vector(packetBytes) ETV
attr interpolationmode none
attr recordingmode vector(packetBytes)
attr source receivedPacketFromUpperLayer
vector 292 vehicularMecTest.car[1].cellularNic.nrMac receivedPacketFromUpperLayer:vector(packetBytes) ETV
attr interpolationmode none
attr recordingmode vector(packetBytes)
attr source receivedPacketFromUpperLayer
vector 293 vehicularMecTest.car[2].cellularNic.nrMac receivedPacketFromUpperLayer:vector(packetBytes) ETV
attr interpolationmode none
attr recordingmode vector(packetBytes)
attr source receivedPacketFromUpperLayer
vector 294 vehicularMecTest.car[3].cellularNic.nrMac receivedPacketFromUpperLayer:vector(packetBytes) ETV
attr interpolationmode none
attr recordingmode vector(packetBytes)
attr source receivedPacketFromUpperLayer
vector 295 vehicularMecTest.car[4].cellularNic.nrMac receivedPacketFromUpperLayer:vector(packetBytes) ETV
attr interpolationmode none
attr recordingmode vector(packetBytes)
attr source receivedPacketFromUpperLayer
vector 296 vehicularMecTest.car[5].cellularNic.nrMac receivedPacketFromUpperLayer:vector(packetBytes) ETV
attr interpolationmode none
attr recordingmode vector(packetBytes)
attr source receivedPacketFromUpperLayer
vector 297 vehicularMecTest.car[6].cellularNic.nrMac receivedPacketFromUpperLayer:vector(packetBytes) ETV
attr interpolationmode none
attr recordingmode vector(packetBytes)
attr source receivedPacketFromUpperLayer
vector 298 vehicularMecTest.car[7].cellularNic.nrMac receivedPacketFromUpperLayer:vector(packetBytes) ETV
attr interpolationmode none
attr recordingmode vector(packetBytes)
attr source receivedPacketFromUpperLayer
vector 299 vehicularMecTest.car[8].cellularNic.nrMac receivedPacketFromUpperLayer:vector(packetBytes) ETV
attr interpolationmode none
attr recordingmode vector(packetBytes)
attr source receivedPacketFromUpperLayer
vector 300 vehicularMecTest.car[9].cellularNic.nrMac receivedPacketFromUpperLayer:vector(packetBytes) ETV
attr interpolationmode none
attr recordingmode vector(packetBytes)
attr source receivedPacketFromUpperLayer
vector 301 vehicularMecTest.car[10].cellularNic.nrMac receivedPacketFromUpperLayer:vector(packetBytes) ETV
attr interpolationmode none
attr recordingmode vector(packetBytes)
attr source receivedPacketFromUpperLayer
vector 302 vehicularMecTest.car[11].cellularNic.nrMac receivedPacketFromUpperLayer:vector(packetBytes) ETV
attr interpolationmode none
attr recordingmode vector(packetBytes)
attr source receivedPacketFromUpperLayer
vector 303 vehicularMecTest.car[12].cellularNic.nrMac receivedPacketFromUpperLayer:vector(packetBytes) ETV
attr interpolationmode none
attr recordingmode vector(packetBytes)
attr source receivedPacketFromUpperLayer
vector 304 vehicularMecTest.car[13].cellularNic.nrMac receivedPacketFromUpperLayer:vector(packetBytes) ETV
attr interpolationmode none
attr recordingmode vector(packetBytes)
attr source receivedPacketFromUpperLayer
vector 305 vehicularMecTest.car[14].cellularNic.nrMac receivedPacketFromUpperLayer:vector(packetBytes) ETV
attr interpolationmode none
attr recordingmode vector(packetBytes)
attr source receivedPacketFromUpperLayer
vector 306 vehicularMecTest.car[15].cellularNic.nrMac receivedPacketFromUpperLayer:vector(packetBytes) ETV
attr interpolationmode none
attr recordingmode vector(packetBytes)
attr source receivedPacketFromUpperLayer
vector 307 vehicularMecTest.car[16].cellularNic.nrMac receivedPacketFromUpperLayer:vector(packetBytes) ETV
attr interpolationmode none
attr recordingmode vector(packetBytes)
attr source receivedPacketFromUpperLayer
vector 308 vehicularMecTest.car[17].cellularNic.nrMac receivedPacketFromUpperLayer:vector(packetBytes) ETV
attr interpolationmode none
attr recordingmode vector(packetBytes)
attr source receivedPacketFromUpperLayer
vector 309 vehicularMecTest.car[18].cellularNic.nrMac receivedPacketFromUpperLayer:vector(packetBytes) ETV
attr interpolationmode none
attr recordingmode vector(packetBytes)
attr source receivedPacketFromUpperLayer
vector 310 vehicularMecTest.car[0].cellularNic.nrMac sentPacketToLowerLayer:vector(packetBytes) ETV
attr interpolationmode none
attr recordingmode vector(packetBytes)
attr source sentPacketToLowerLayer
vector 311 vehicularMecTest.car[1].cellularNic.nrMac sentPacketToLowerLayer:vector(packetBytes) ETV
attr interpolationmode none
attr recordingmode vector(packetBytes)
attr source sentPacketToLowerLayer
vector 312 vehicularMecTest.car[2].cellularNic.nrMac sentPacketToLowerLayer:vector(packetBytes) ETV
attr interpolationmode none
attr recordingmode vector(packetBytes)
attr source sentPacketToLowerLayer
vector 313 vehicularMecTest.car[3].cellularNic.nrMac sentPacketToLowerLayer:vector(packetBytes) ETV
attr interpolationmode none
attr recordingmode vector(packetBytes)
attr source sentPacketToLowerLayer
vector 314 vehicularMecTest.car[4].cellularNic.nrMac sentPacketToLowerLayer:vector(packetBytes) ETV
attr interpolationmode none
attr recordingmode vector(packetBytes)
attr source sentPacketToLowerLayer
vector 315 vehicularMecTest.car[5].cellularNic.nrMac sentPacketToLowerLayer:vector(packetBytes) ETV
attr interpolationmode none
attr recordingmode vector(packetBytes)
attr source sentPacketToLowerLayer
vector 316 vehicularMecTest.car[6].cellularNic.nrMac sentPacketToLowerLayer:vector(packetBytes) ETV
attr interpolationmode none
attr recordingmode vector(packetBytes)
attr source sentPacketToLowerLayer
vector 317 vehicularMecTest.car[7].cellularNic.nrMac sentPacketToLowerLayer:vector(packetBytes) ETV
attr interpolationmode none
attr recordingmode vector(packetBytes)
attr source sentPacketToLowerLayer
vector 318 vehicularMecTest.car[8].cellularNic.nrMac sentPacketToLowerLayer:vector(packetBytes) ETV
attr interpolationmode none
attr recordingmode vector(packetBytes)
attr source sentPacketToLowerLayer
vector 319 vehicularMecTest.car[9].cellularNic.nrMac sentPacketToLowerLayer:vector(packetBytes) ETV
attr interpolationmode none
attr recordingmode vector(packetBytes)
attr source sentPacketToLowerLayer
vector 320 vehicularMecTest.car[10].cellularNic.nrMac sentPacketToLowerLayer:vector(packetBytes) ETV
attr interpolationmode none
attr recordingmode vector(packetBytes)
attr source sentPacketToLowerLayer
vector 321 vehicularMecTest.car[11].cellularNic.nrMac sentPacketToLowerLayer:vector(packetBytes) ETV
attr interpolationmode none
attr recordingmode vector(packetBytes)
attr source sentPacketToLowerLayer
vector 322 vehicularMecTest.car[12].cellularNic.nrMac sentPacketToLowerLayer:vector(packetBytes) ETV
attr interpolationmode none
attr recordingmode vector(packetBytes)
attr source sentPacketToLowerLayer
vector 323 vehicularMecTest.car[13].cellularNic.nrMac sentPacketToLowerLayer:vector(packetBytes) ETV
attr interpolationmode none
attr recordingmode vector(packetBytes)
attr source sentPacketToLowerLayer
vector 324 vehicularMecTest.car[14].cellularNic.nrMac sentPacketToLowerLayer:vector(packetBytes) ETV
attr interpolationmode none
attr recordingmode vector(packetBytes)
attr source sentPacketToLowerLayer
vector 325 vehicularMecTest.car[15].cellularNic.nrMac sentPacketToLowerLayer:vector(packetBytes) ETV
attr interpolationmode none
attr recordingmode vector(packetBytes)
attr source sentPacketToLowerLayer
vector 326 vehicularMecTest.car[16].cellularNic.nrMac sentPacketToLowerLayer:vector(packetBytes) ETV
attr interpolationmode none
attr recordingmode vector(packetBytes)
attr source sentPacketToLowerLayer
vector 327 vehicularMecTest.car[17].cellularNic.nrMac sentPacketToLowerLayer:vector(packetBytes) ETV
attr interpolationmode none
attr recordingmode vector(packetBytes)
attr source sentPacketToLowerLayer
vector 328 vehicularMecTest.car[18].cellularNic.nrMac sentPacketToLowerLayer:vector(packetBytes) ETV
attr interpolationmode none
attr recordingmode vector(packetBytes)
attr source sentPacketToLowerLayer
vector 329 vehicularMecTest.gNodeB1.cellularNic.mac receivedPacketFromLowerLayer:vector(packetBytes) ETV
attr interpolationmode none
attr recordingmode vector(packetBytes)
attr source receivedPacketFromLowerLayer
vector 330 vehicularMecTest.gNodeB1.cellularNic.mac sentPacketToLowerLayer:vector(packetBytes) ETV
attr interpolationmode none
attr recordingmode vector(packetBytes)
attr source sentPacketToLowerLayer
vector 331 vehicularMecTest.car[0].cellularNic.nrMac receivedPacketFromLowerLayer:vector(packetBytes) ETV
attr interpolationmode none
attr recordingmode vector(packetBytes)
attr source receivedPacketFromLowerLayer
vector 332 vehicularMecTest.car[1].cellularNic.nrMac receivedPacketFromLowerLayer:vector(packetBytes) ETV
attr interpolationmode none
attr recordingmode vector(packetBytes)
attr source receivedPacketFromLowerLayer
vector 333 vehicularMecTest.car[2].cellularNic.nrMac receivedPacketFromLowerLayer:vector(packetBytes) ETV
attr interpolationmode none
attr recordingmode vector(packetBytes)
attr source receivedPacketFromLowerLayer
vector 334 vehicularMecTest.car[3].cellularNic.nrMac receivedPacketFromLowerLayer:vector(packetBytes) ETV
attr interpolationmode none
attr recordingmode vector(packetBytes)
attr source receivedPacketFromLowerLayer
vector 335 vehicularMecTest.car[4].cellularNic.nrMac receivedPacketFromLowerLayer:vector(packetBytes) ETV
attr interpolationmode none
attr recordingmode vector(packetBytes)
attr source receivedPacketFromLowerLayer
vector 336 vehicularMecTest.car[5].cellularNic.nrMac receivedPacketFromLowerLayer:vector(packetBytes) ETV
attr interpolationmode none
attr recordingmode vector(packetBytes)
attr source receivedPacketFromLowerLayer
vector 337 vehicularMecTest.car[6].cellularNic.nrMac receivedPacketFromLowerLayer:vector(packetBytes) ETV
attr interpolationmode none
attr recordingmode vector(packetBytes)
attr source receivedPacketFromLowerLayer
vector 338 vehicularMecTest.car[7].cellularNic.nrMac receivedPacketFromLowerLayer:vector(packetBytes) ETV
attr interpolationmode none
attr recordingmode vector(packetBytes)
attr source receivedPacketFromLowerLayer
vector 339 vehicularMecTest.car[8].cellularNic.nrMac receivedPacketFromLowerLayer:vector(packetBytes) ETV
attr interpolationmode none
attr recordingmode vector(packetBytes)
attr source receivedPacketFromLowerLayer
vector 340 vehicularMecTest.car[9].cellularNic.nrMac receivedPacketFromLowerLayer:vector(packetBytes) ETV
attr interpolationmode none
attr recordingmode vector(packetBytes)
attr source receivedPacketFromLowerLayer
vector 341 vehicularMecTest.car[10].cellularNic.nrMac receivedPacketFromLowerLayer:vector(packetBytes) ETV
attr interpolationmode none
attr recordingmode vector(packetBytes)
attr source receivedPacketFromLowerLayer
vector 342 vehicularMecTest.car[11].cellularNic.nrMac receivedPacketFromLowerLayer:vector(packetBytes) ETV
attr interpolationmode none
attr recordingmode vector(packetBytes)
attr source receivedPacketFromLowerLayer
vector 343 vehicularMecTest.car[12].cellularNic.nrMac receivedPacketFromLowerLayer:vector(packetBytes) ETV
attr interpolationmode none
attr recordingmode vector(packetBytes)
attr source receivedPacketFromLowerLayer
vector 344 vehicularMecTest.car[13].cellularNic.nrMac receivedPacketFromLowerLayer:vector(packetBytes) ETV
attr interpolationmode none
attr recordingmode vector(packetBytes)
attr source receivedPacketFromLowerLayer
vector 345 vehicularMecTest.car[14].cellularNic.nrMac receivedPacketFromLowerLayer:vector(packetBytes) ETV
attr interpolationmode none
attr recordingmode vector(packetBytes)
attr source receivedPacketFromLowerLayer
vector 346 vehicularMecTest.car[15].cellularNic.nrMac receivedPacketFromLowerLayer:vector(packetBytes) ETV
attr interpolationmode none
attr recordingmode vector(packetBytes)
attr source receivedPacketFromLowerLayer
vector 347 vehicularMecTest.car[16].cellularNic.nrMac receivedPacketFromLowerLayer:vector(packetBytes) ETV
attr interpolationmode none
attr recordingmode vector(packetBytes)
attr source receivedPacketFromLowerLayer
vector 348 vehicularMecTest.car[17].cellularNic.nrMac receivedPacketFromLowerLayer:vector(packetBytes) ETV
attr interpolationmode none
attr recordingmode vector(packetBytes)
attr source receivedPacketFromLowerLayer
vector 349 vehicularMecTest.car[18].cellularNic.nrMac receivedPacketFromLowerLayer:vector(packetBytes) ETV
attr interpolationmode none
attr recordingmode vector(packetBytes)
attr source receivedPacketFromLowerLayer
vector 350 vehicularMecTest.car[0].cellularNic.nrChannelModel[0] speed:vector ETV
attr recordingmode vector
attr source speed
attr title speed
attr unit dB
vector 351 vehicularMecTest.car[0].cellularNic.nrChannelModel[0] measuredSinrUl:vector ETV
attr recordingmode vector
attr source measuredSinrUl
attr title "SINR measured at feedback computation, UL"
attr unit dB
vector 352 vehicularMecTest.car[0].cellularNic.nrChannelModel[0] rcvdPWRUl:vector ETV
attr recordingmode vector
attr source rcvdPWRUl
attr title "Signal power measured at packet reception, UL"
attr unit dB
vector 353 vehicularMecTest.car[0].cellularNic.nrChannelModel[0] recvPowerUl:vector ETV
attr recordingmode vector
attr source recvPowerUl
attr title recvPowerUl
attr unit dB
vector 354 vehicularMecTest.car[0].cellularNic.nrChannelModel[0] antennaGainTxUl:vector ETV
attr recordingmode vector
attr source antennaGainTxUl
attr title antennaGainTxUl
attr unit dB
vector 355 vehicularMecTest.car[0].cellularNic.nrChannelModel[0] antennaGainRxUl:vector ETV
attr recordingmode vector
attr source antennaGainRxUl
attr title antennaGainRxUl
attr unit dB
vector 356 vehicularMecTest.car[0].cellularNic.nrChannelModel[0] noiseFigureUl:vector ETV
attr recordingmode vector
attr source noiseFigureUl
attr title noiseFigureUl
attr unit dB
vector 357 vehicularMecTest.car[0].cellularNic.nrChannelModel[0] cableLossUl:vector ETV
attr recordingmode vector
attr source cableLossUl
attr title cableLossUl
attr unit dB
vector 358 vehicularMecTest.car[0].cellularNic.nrChannelModel[0] attenuationUl:vector ETV
attr recordingmode vector
attr source attenuationUl
attr title attenuationUl
attr unit dB
vector 359 vehicularMecTest.car[0].cellularNic.nrChannelModel[0] thermalNoiseUl:vector ETV
attr recordingmode vector
attr source thermalNoiseUl
attr title thermalNoiseUl
attr unit dB
vector 360 vehicularMecTest.car[0].cellularNic.nrChannelModel[0] fadingAttenuationUl:vector ETV
attr recordingmode vector
attr source fadingAttenuationUl
attr title fadingAttenuationUl
attr unit dB
vector 361 vehicularMecTest.car[0].cellularNic.nrChannelModel[0] recvPowerTxUl:vector ETV
attr recordingmode vector
attr source recvPowerTxUl
attr title recvPowerTxUl
attr unit dB
vector 362 vehicularMecTest.car[0].cellularNic.nrChannelModel[0] attenuationPathLossUl:vector ETV
attr recordingmode vector
attr source attenuationPathLossUl
attr title attenuationPathLossUl
attr unit dB
vector 363 vehicularMecTest.car[0].cellularNic.nrChannelModel[0] attenuationShadowingUl:vector ETV
attr recordingmode vector
attr source attenuationShadowingUl
attr title attenuationShadowingUl
attr unit dB
vector 364 vehicularMecTest.car[0].cellularNic.nrChannelModel[0] measuredSinrDl:vector ETV
attr recordingmode vector
attr source measuredSinrDl
attr title "SINR measured at feedback computation, DL"
attr unit dB
vector 365 vehicularMecTest.car[0].cellularNic.nrChannelModel[0] rcvdPWRDl:vector ETV
attr recordingmode vector
attr source rcvdPWRDl
attr title "Signal power measured at packet reception, DL"
attr unit dB
vector 366 vehicularMecTest.car[0].cellularNic.nrChannelModel[0] recvPowerDl:vector ETV
attr recordingmode vector
attr source recvPowerDl
attr title recvPowerDl
attr unit dB
vector 367 vehicularMecTest.car[0].cellularNic.nrChannelModel[0] antennaGainTxDl:vector ETV
attr recordingmode vector
attr source antennaGainTxDl
attr title antennaGainTxDl
attr unit dB
vector 368 vehicularMecTest.car[0].cellularNic.nrChannelModel[0] antennaGainRxDl:vector ETV
attr recordingmode vector
attr source antennaGainRxDl
attr title antennaGainRxDl
attr unit dB
vector 369 vehicularMecTest.car[0].cellularNic.nrChannelModel[0] noiseFigureDl:vector ETV
attr recordingmode vector
attr source noiseFigureDl
attr title noiseFigureDl
attr unit dB
vector 370 vehicularMecTest.car[0].cellularNic.nrChannelModel[0] cableLossDl:vector ETV
attr recordingmode vector
attr source cableLossDl
attr title cableLossDl
attr unit dB
vector 371 vehicularMecTest.car[0].cellularNic.nrChannelModel[0] attenuationDl:vector ETV
attr recordingmode vector
attr source attenuationDl
attr title attenuationDl
attr unit dB
vector 372 vehicularMecTest.car[0].cellularNic.nrChannelModel[0] thermalNoiseDl:vector ETV
attr recordingmode vector
attr source thermalNoiseDl
attr title thermalNoiseDl
attr unit dB
vector 373 vehicularMecTest.car[0].cellularNic.nrChannelModel[0] fadingAttenuationDl:vector ETV
attr recordingmode vector
attr source fadingAttenuationDl
attr title fadingAttenuationDl
attr unit dB
vector 374 vehicularMecTest.car[0].cellularNic.nrChannelModel[0] recvPowerTxDl:vector ETV
attr recordingmode vector
attr source recvPowerTxDl
attr title recvPowerTxDl
attr unit dB
vector 375 vehicularMecTest.car[0].cellularNic.nrChannelModel[0] attenuationPathLossDl:vector ETV
attr recordingmode vector
attr source attenuationPathLossDl
attr title attenuationPathLossDl
attr unit dB
vector 376 vehicularMecTest.car[0].cellularNic.nrChannelModel[0] attenuationShadowingDl:vector ETV
attr recordingmode vector
attr source attenuationShadowingDl
attr title attenuationShadowingDl
attr unit dB
vector 377 vehicularMecTest.car[1].cellularNic.nrChannelModel[0] speed:vector ETV
attr recordingmode vector
attr source speed
attr title speed
attr unit dB
vector 378 vehicularMecTest.car[1].cellularNic.nrChannelModel[0] measuredSinrUl:vector ETV
attr recordingmode vector
attr source measuredSinrUl
attr title "SINR measured at feedback computation, UL"
attr unit dB
vector 379 vehicularMecTest.car[1].cellularNic.nrChannelModel[0] rcvdPWRUl:vector ETV
attr recordingmode vector
attr source rcvdPWRUl
attr title "Signal power measured at packet reception, UL"
attr unit dB
vector 380 vehicularMecTest.car[1].cellularNic.nrChannelModel[0] recvPowerUl:vector ETV
attr recordingmode vector
attr source recvPowerUl
attr title recvPowerUl
attr unit dB
vector 381 vehicularMecTest.car[1].cellularNic.nrChannelModel[0] antennaGainTxUl:vector ETV
attr recordingmode vector
attr source antennaGainTxUl
attr title antennaGainTxUl
attr unit dB
vector 382 vehicularMecTest.car[1].cellularNic.nrChannelModel[0] antennaGainRxUl:vector ETV
attr recordingmode vector
attr source antennaGainRxUl
attr title antennaGainRxUl
attr unit dB
vector 383 vehicularMecTest.car[1].cellularNic.nrChannelModel[0] noiseFigureUl:vector ETV
attr recordingmode vector
attr source noiseFigureUl
attr title noiseFigureUl
attr unit dB
vector 384 vehicularMecTest.car[1].cellularNic.nrChannelModel[0] cableLossUl:vector ETV
attr recordingmode vector
attr source cableLossUl
attr title cableLossUl
attr unit dB
vector 385 vehicularMecTest.car[1].cellularNic.nrChannelModel[0] attenuationUl:vector ETV
attr recordingmode vector
attr source attenuationUl
attr title attenuationUl
attr unit dB
vector 386 vehicularMecTest.car[1].cellularNic.nrChannelModel[0] thermalNoiseUl:vector ETV
attr recordingmode vector
attr source thermalNoiseUl
attr title thermalNoiseUl
attr unit dB
vector 387 vehicularMecTest.car[1].cellularNic.nrChannelModel[0] fadingAttenuationUl:vector ETV
attr recordingmode vector
attr source fadingAttenuationUl
attr title fadingAttenuationUl
attr unit dB
vector 388 vehicularMecTest.car[1].cellularNic.nrChannelModel[0] recvPowerTxUl:vector ETV
attr recordingmode vector
attr source recvPowerTxUl
attr title recvPowerTxUl
attr unit dB
vector 389 vehicularMecTest.car[1].cellularNic.nrChannelModel[0] attenuationPathLossUl:vector ETV
attr recordingmode vector
attr source attenuationPathLossUl
attr title attenuationPathLossUl
attr unit dB
vector 390 vehicularMecTest.car[1].cellularNic.nrChannelModel[0] attenuationShadowingUl:vector ETV
attr recordingmode vector
attr source attenuationShadowingUl
attr title attenuationShadowingUl
attr unit dB
vector 391 vehicularMecTest.car[1].cellularNic.nrChannelModel[0] measuredSinrDl:vector ETV
attr recordingmode vector
attr source measuredSinrDl
attr title "SINR measured at feedback computation, DL"
attr unit dB
vector 392 vehicularMecTest.car[1].cellularNic.nrChannelModel[0] rcvdPWRDl:vector ETV
attr recordingmode vector
attr source rcvdPWRDl
attr title "Signal power measured at packet reception, DL"
attr unit dB
vector 393 vehicularMecTest.car[1].cellularNic.nrChannelModel[0] recvPowerDl:vector ETV
attr recordingmode vector
attr source recvPowerDl
attr title recvPowerDl
attr unit dB
vector 394 vehicularMecTest.car[1].cellularNic.nrChannelModel[0] antennaGainTxDl:vector ETV
attr recordingmode vector
attr source antennaGainTxDl
attr title antennaGainTxDl
attr unit dB
vector 395 vehicularMecTest.car[1].cellularNic.nrChannelModel[0] antennaGainRxDl:vector ETV
attr recordingmode vector
attr source antennaGainRxDl
attr title antennaGainRxDl
attr unit dB
vector 396 vehicularMecTest.car[1].cellularNic.nrChannelModel[0] noiseFigureDl:vector ETV
attr recordingmode vector
attr source noiseFigureDl
attr title noiseFigureDl
attr unit dB
vector 397 vehicularMecTest.car[1].cellularNic.nrChannelModel[0] cableLossDl:vector ETV
attr recordingmode vector
attr source cableLossDl
attr title cableLossDl
attr unit dB
vector 398 vehicularMecTest.car[1].cellularNic.nrChannelModel[0] attenuationDl:vector ETV
attr recordingmode vector
attr source attenuationDl
attr title attenuationDl
attr unit dB
vector 399 vehicularMecTest.car[1].cellularNic.nrChannelModel[0] thermalNoiseDl:vector ETV
attr recordingmode vector
attr source thermalNoiseDl
attr title thermalNoiseDl
attr unit dB
vector 400 vehicularMecTest.car[1].cellularNic.nrChannelModel[0] fadingAttenuationDl:vector ETV
attr recordingmode vector
attr source fadingAttenuationDl
attr title fadingAttenuationDl
attr unit dB
vector 401 vehicularMecTest.car[1].cellularNic.nrChannelModel[0] recvPowerTxDl:vector ETV
attr recordingmode vector
attr source recvPowerTxDl
attr title recvPowerTxDl
attr unit dB
vector 402 vehicularMecTest.car[1].cellularNic.nrChannelModel[0] attenuationPathLossDl:vector ETV
attr recordingmode vector
attr source attenuationPathLossDl
attr title attenuationPathLossDl
attr unit dB
vector 403 vehicularMecTest.car[1].cellularNic.nrChannelModel[0] attenuationShadowingDl:vector ETV
attr recordingmode vector
attr source attenuationShadowingDl
attr title attenuationShadowingDl
attr unit dB
vector 404 vehicularMecTest.car[2].cellularNic.nrChannelModel[0] speed:vector ETV
attr recordingmode vector
attr source speed
attr title speed
attr unit dB
[...]
attr recordingmode vector
attr source failed_to_start_mecApp_Signal
attr title "Fails to start MecApp"
attr unit nb
vector 2437 vehicularMecTest.car[15].app[1] failed_to_start_mecApp_:vector ETV
attr recordingmode vector
attr source failed_to_start_mecApp_Signal
attr title "Fails to start MecApp"
attr unit nb
vector 2438 vehicularMecTest.car[16].app[1] failed_to_start_mecApp_:vector ETV
attr recordingmode vector
attr source failed_to_start_mecApp_Signal
attr title "Fails to start MecApp"
attr unit nb
vector 2439 vehicularMecTest.car[17].app[1] failed_to_start_mecApp_:vector ETV
attr recordingmode vector
attr source failed_to_start_mecApp_Signal
attr title "Fails to start MecApp"
attr unit nb
vector 2440 vehicularMecTest.car[18].app[1] failed_to_start_mecApp_:vector ETV
attr recordingmode vector
attr source failed_to_start_mecApp_Signal
attr title "Fails to start MecApp"
attr unit nb
vector 2441 vehicularMecTest.car[7].app[1] failed_to_start_mecApp_:vector ETV
attr recordingmode vector
attr source failed_to_start_mecApp_Signal
attr title "Fails to start MecApp"
attr unit nb
vector 2442 vehicularMecTest.car[10].app[1] failed_to_start_mecApp_:vector ETV
attr recordingmode vector
attr source failed_to_start_mecApp_Signal
attr title "Fails to start MecApp"
attr unit nb
vector 2443 vehicularMecTest.gNodeB1.pppMEHostIf.queue incomingPacketLengths:vector ETV
attr interpolationmode none
attr recordingmode vector
attr source packetLength(packetPushStarted)
attr title "incoming packet lengths"
attr unit b
vector 2444 vehicularMecTest.gNodeB1.pppMEHostIf.queue incomingDataRate:vector ETV
attr interpolationmode linear
attr recordingmode vector
attr source throughput(packetPushStarted)
attr title "incoming datarate"
attr unit bps
vector 2445 vehicularMecTest.gNodeB1.pppMEHostIf.queue queueingTime:vector ETV
attr interpolationmode none
attr recordingmode vector
attr source queueingTime(packetPulled)
attr title "queueing times"
attr unit s
vector 2446 vehicularMecTest.gNodeB1.pppMEHostIf.queue outgoingPacketLengths:vector ETV
attr interpolationmode none
attr recordingmode vector
attr source packetLength(packetPulled)
attr title "outgoing packet lengths"
attr unit b
vector 2447 vehicularMecTest.gNodeB1.pppMEHostIf.queue outgoingDataRate:vector ETV
attr interpolationmode linear
attr recordingmode vector
attr source throughput(packetPulled)
attr title "outgoing datarate"
attr unit bps
vector 2448 vehicularMecTest.gNodeB1.pppMEHostIf.ppp txPk:vector(packetBytes) ETV
attr interpolationmode none
attr recordingmode vector(packetBytes)
attr source packetSentToLower
attr title "packets transmitted, packetBytes"
vector 2449 vehicularMecTest.gNodeB1.pppMEHostIf.queue queueLength:vector ETV
attr autoWarmupFilter false
attr interpolationmode sample-hold
attr recordingmode vector
attr source "warmup(atomic(constant0(packetPushEnded) + count(packetPushStarted) - count(packetPulled) - count(packetRemoved) - count(packetDropped)))"
attr title "queue length"
attr unit pk
vector 2450 vehicularMecTest.gNodeB1.pppMEHostIf.queue queueBitLength:vector ETV
attr autoWarmupFilter false
attr interpolationmode sample-hold
attr recordingmode vector
attr source "warmup(atomic(constant0(packetPushEnded) + sum(packetLength(packetPushStarted)) - sum(packetLength(packetPulled)) - sum(packetLength(packetRemoved)) - sum(packetLength(packetDropped))))"
attr title "queue bit length"
attr unit b
vector 2451 vehicularMecTest.mecHost.upf_mec.ppp[0].ppp rxPkOk:vector(packetBytes) ETV
attr interpolationmode none
attr recordingmode vector(packetBytes)
attr source rxPkOk
attr title "packets received OK, packetBytes"
vector 2452 vehicularMecTest.mecHost.upf_mec.ppp[0].ppp passedUpPk:vector(packetBytes) ETV
attr interpolationmode none
attr recordingmode vector(packetBytes)
attr source packetSentToUpper
attr title "packets passed to higher layer, packetBytes"
vector 2453 vehicularMecTest.mecHost.upf_mec.udp packetReceived:vector(packetBytes) ETV
attr interpolationmode none
attr recordingmode vector(packetBytes)
attr source packetReceived
attr title "packets received, packetBytes"
vector 2454 vehicularMecTest.mecHost.upf_mec.pppIf.queue incomingPacketLengths:vector ETV
attr interpolationmode none
attr recordingmode vector
attr source packetLength(packetPushStarted)
attr title "incoming packet lengths"
attr unit b
vector 2455 vehicularMecTest.mecHost.upf_mec.pppIf.queue incomingDataRate:vector ETV
attr interpolationmode linear
attr recordingmode vector
attr source throughput(packetPushStarted)
attr title "incoming datarate"
attr unit bps
vector 2456 vehicularMecTest.mecHost.upf_mec.pppIf.queue queueingTime:vector ETV
attr interpolationmode none
attr recordingmode vector
attr source queueingTime(packetPulled)
attr title "queueing times"
attr unit s
vector 2457 vehicularMecTest.mecHost.upf_mec.pppIf.queue outgoingPacketLengths:vector ETV
attr interpolationmode none
attr recordingmode vector
attr source packetLength(packetPulled)
attr title "outgoing packet lengths"
attr unit b
vector 2458 vehicularMecTest.mecHost.upf_mec.pppIf.queue outgoingDataRate:vector ETV
attr interpolationmode linear
attr recordingmode vector
attr source throughput(packetPulled)
attr title "outgoing datarate"
attr unit bps
vector 2459 vehicularMecTest.mecHost.upf_mec.pppIf.ppp txPk:vector(packetBytes) ETV
attr interpolationmode none
attr recordingmode vector(packetBytes)
attr source packetSentToLower
attr title "packets transmitted, packetBytes"
vector 2460 vehicularMecTest.mecHost.upf_mec.pppIf.queue queueLength:vector ETV
attr autoWarmupFilter false
attr interpolationmode sample-hold
attr recordingmode vector
attr source "warmup(atomic(constant0(packetPushEnded) + count(packetPushStarted) - count(packetPulled) - count(packetRemoved) - count(packetDropped)))"
attr title "queue length"
attr unit pk
vector 2461 vehicularMecTest.mecHost.upf_mec.pppIf.queue queueBitLength:vector ETV
attr autoWarmupFilter false
attr interpolationmode sample-hold
attr recordingmode vector
attr source "warmup(atomic(constant0(packetPushEnded) + sum(packetLength(packetPushStarted)) - sum(packetLength(packetPulled)) - sum(packetLength(packetRemoved)) - sum(packetLength(packetDropped))))"
attr title "queue bit length"
attr unit b
vector 2462 vehicularMecTest.mecHost.virtualisationInfrastructure.pppIf[0].ppp rxPkOk:vector(packetBytes) ETV
attr interpolationmode none
attr recordingmode vector(packetBytes)
attr source rxPkOk
attr title "packets received OK, packetBytes"
vector 2463 vehicularMecTest.mecHost.virtualisationInfrastructure.pppIf[0].ppp passedUpPk:vector(packetBytes) ETV
attr interpolationmode none
attr recordingmode vector(packetBytes)
attr source packetSentToUpper
attr title "packets passed to higher layer, packetBytes"
vector 2464 vehicularMecTest.mecHost.virtualisationInfrastructure.udp packetReceived:vector(packetBytes) ETV
attr interpolationmode none
attr recordingmode vector(packetBytes)
attr source packetReceived
attr title "packets received, packetBytes"
vector 2465 "vehicularMecTest.mecHost.\n1554" mecapp_pk_rcv_size:vector ETV
attr recordingmode vector
attr source mecapp_pk_rcv_sizeSignal
attr title "size of preceived packet"
attr unit notyet
vector 2466 "vehicularMecTest.mecHost.\n1554" mecappul_delay:vector ETV
attr recordingmode vector
attr source mecapp_ul_delaySignal
attr title "e2e delay"
attr unit notyet
vector 2467 vehicularMecTest.mecHost.virtualisationInfrastructure.udp packetSent:vector(packetBytes) ETV
attr interpolationmode none
attr recordingmode vector(packetBytes)
attr source packetSent
attr title "packets sent, packetBytes"
vector 2468 vehicularMecTest.mecHost.virtualisationInfrastructure.pppIf[0].queue incomingPacketLengths:vector ETV
attr interpolationmode none
attr recordingmode vector
attr source packetLength(packetPushStarted)
attr title "incoming packet lengths"
attr unit b
vector 2469 vehicularMecTest.mecHost.virtualisationInfrastructure.pppIf[0].queue incomingDataRate:vector ETV
attr interpolationmode linear
attr recordingmode vector
attr source throughput(packetPushStarted)
attr title "incoming datarate"
attr unit bps
vector 2470 vehicularMecTest.mecHost.virtualisationInfrastructure.pppIf[0].queue queueingTime:vector ETV
attr interpolationmode none
attr recordingmode vector
attr source queueingTime(packetPulled)
attr title "queueing times"
attr unit s
vector 2471 vehicularMecTest.mecHost.virtualisationInfrastructure.pppIf[0].queue outgoingPacketLengths:vector ETV
attr interpolationmode none
attr recordingmode vector
attr source packetLength(packetPulled)
attr title "outgoing packet lengths"
attr unit b
vector 2472 vehicularMecTest.mecHost.virtualisationInfrastructure.pppIf[0].queue outgoingDataRate:vector ETV
attr interpolationmode linear
attr recordingmode vector
attr source throughput(packetPulled)
attr title "outgoing datarate"
attr unit bps
vector 2473 vehicularMecTest.mecHost.virtualisationInfrastructure.pppIf[0].ppp handleUpperPacket:vector(packetBytes) ETV
attr interpolationmode none
attr recordingmode vector(packetBytes)
attr source handleUpperPacket
attr title "handleUpperPacket, packetBytes"
attr unit handleUpperPacket
vector 2474 vehicularMecTest.mecHost.virtualisationInfrastructure.pppIf[0].ppp txPk:vector(packetBytes) ETV
attr interpolationmode none
attr recordingmode vector(packetBytes)
attr source packetSentToLower
attr title "packets transmitted, packetBytes"
vector 2475 vehicularMecTest.mecHost.virtualisationInfrastructure.pppIf[0].queue queueLength:vector ETV
attr autoWarmupFilter false
attr interpolationmode sample-hold
attr recordingmode vector
attr source "warmup(atomic(constant0(packetPushEnded) + count(packetPushStarted) - count(packetPulled) - count(packetRemoved) - count(packetDropped)))"
attr title "queue length"
attr unit pk
vector 2476 vehicularMecTest.mecHost.virtualisationInfrastructure.pppIf[0].queue queueBitLength:vector ETV
attr autoWarmupFilter false
attr interpolationmode sample-hold
attr recordingmode vector
attr source "warmup(atomic(constant0(packetPushEnded) + sum(packetLength(packetPushStarted)) - sum(packetLength(packetPulled)) - sum(packetLength(packetRemoved)) - sum(packetLength(packetDropped))))"
attr title "queue bit length"
attr unit b
vector 2477 vehicularMecTest.mecHost.upf_mec.pppIf.ppp handleMessageWhenUp:vector(packetBytes) ETV
attr interpolationmode none
attr recordingmode vector(packetBytes)
attr source handleMessageWhenUp
attr title "handleMessageWhenUp, packetBytes"
attr unit handleMessageWhenUp
vector 2478 vehicularMecTest.mecHost.upf_mec.pppIf.ppp handleLowerPacket:vector(packetBytes) ETV
attr interpolationmode none
attr recordingmode vector(packetBytes)
attr source handleLowerPacket
attr title "handleLowerPacket, packetBytes"
attr unit handleLowerPacket
vector 2479 vehicularMecTest.mecHost.upf_mec.pppIf.ppp rxPkOk:vector(packetBytes) ETV
attr interpolationmode none
attr recordingmode vector(packetBytes)
attr source rxPkOk
attr title "packets received OK, packetBytes"
vector 2480 vehicularMecTest.mecHost.upf_mec.pppIf.ppp passedUpPk:vector(packetBytes) ETV
attr interpolationmode none
attr recordingmode vector(packetBytes)
attr source packetSentToUpper
attr title "packets passed to higher layer, packetBytes"
vector 2481 vehicularMecTest.mecHost.upf_mec.udp packetSent:vector(packetBytes) ETV
attr interpolationmode none
attr recordingmode vector(packetBytes)
attr source packetSent
attr title "packets sent, packetBytes"
vector 2482 vehicularMecTest.mecHost.upf_mec.ppp[0].queue incomingPacketLengths:vector ETV
attr interpolationmode none
attr recordingmode vector
attr source packetLength(packetPushStarted)
attr title "incoming packet lengths"
attr unit b
vector 2483 vehicularMecTest.mecHost.upf_mec.ppp[0].queue incomingDataRate:vector ETV
attr interpolationmode linear
attr recordingmode vector
attr source throughput(packetPushStarted)
attr title "incoming datarate"
attr unit bps
vector 2484 vehicularMecTest.mecHost.upf_mec.ppp[0].queue queueingTime:vector ETV
attr interpolationmode none
attr recordingmode vector
attr source queueingTime(packetPulled)
attr title "queueing times"
attr unit s
vector 2485 vehicularMecTest.mecHost.upf_mec.ppp[0].queue outgoingPacketLengths:vector ETV
attr interpolationmode none
attr recordingmode vector
attr source packetLength(packetPulled)
attr title "outgoing packet lengths"
attr unit b
vector 2486 vehicularMecTest.mecHost.upf_mec.ppp[0].queue outgoingDataRate:vector ETV
attr interpolationmode linear
attr recordingmode vector
attr source throughput(packetPulled)
attr title "outgoing datarate"
attr unit bps
vector 2487 vehicularMecTest.mecHost.upf_mec.ppp[0].ppp handleUpperPacket:vector(packetBytes) ETV
attr interpolationmode none
attr recordingmode vector(packetBytes)
attr source handleUpperPacket
attr title "handleUpperPacket, packetBytes"
attr unit handleUpperPacket
vector 2488 vehicularMecTest.mecHost.upf_mec.ppp[0].ppp txPk:vector(packetBytes) ETV
attr interpolationmode none
attr recordingmode vector(packetBytes)
attr source packetSentToLower
attr title "packets transmitted, packetBytes"
vector 2489 vehicularMecTest.mecHost.upf_mec.ppp[0].queue queueLength:vector ETV
attr autoWarmupFilter false
attr interpolationmode sample-hold
attr recordingmode vector
attr source "warmup(atomic(constant0(packetPushEnded) + count(packetPushStarted) - count(packetPulled) - count(packetRemoved) - count(packetDropped)))"
attr title "queue length"
attr unit pk
vector 2490 vehicularMecTest.mecHost.upf_mec.ppp[0].queue queueBitLength:vector ETV
attr autoWarmupFilter false
attr interpolationmode sample-hold
attr recordingmode vector
attr source "warmup(atomic(constant0(packetPushEnded) + sum(packetLength(packetPushStarted)) - sum(packetLength(packetPulled)) - sum(packetLength(packetRemoved)) - sum(packetLength(packetDropped))))"
attr title "queue bit length"
attr unit b
vector 2491 vehicularMecTest.gNodeB1.pppMEHostIf.ppp handleMessageWhenUp:vector(packetBytes) ETV
attr interpolationmode none
attr recordingmode vector(packetBytes)
attr source handleMessageWhenUp
attr title "handleMessageWhenUp, packetBytes"
attr unit handleMessageWhenUp
vector 2492 vehicularMecTest.gNodeB1.pppMEHostIf.ppp handleLowerPacket:vector(packetBytes) ETV
attr interpolationmode none
attr recordingmode vector(packetBytes)
attr source handleLowerPacket
attr title "handleLowerPacket, packetBytes"
attr unit handleLowerPacket
vector 2493 vehicularMecTest.gNodeB1.pppMEHostIf.ppp rxPkOk:vector(packetBytes) ETV
attr interpolationmode none
attr recordingmode vector(packetBytes)
attr source rxPkOk
attr title "packets received OK, packetBytes"
vector 2494 vehicularMecTest.gNodeB1.pppMEHostIf.ppp passedUpPk:vector(packetBytes) ETV
attr interpolationmode none
attr recordingmode vector(packetBytes)
attr source packetSentToUpper
attr title "packets passed to higher layer, packetBytes"
vector 2495 "vehicularMecTest.mecHost.\n1558" mecapp_pk_rcv_size:vector ETV
attr recordingmode vector
attr source mecapp_pk_rcv_sizeSignal
attr title "size of preceived packet"
attr unit notyet
vector 2496 "vehicularMecTest.mecHost.\n1558" mecappul_delay:vector ETV
attr recordingmode vector
attr source mecapp_ul_delaySignal
attr title "e2e delay"
attr unit notyet
vector 2497 "vehicularMecTest.mecHost.\n1566" mecapp_pk_rcv_size:vector ETV
attr recordingmode vector
attr source mecapp_pk_rcv_sizeSignal
attr title "size of preceived packet"
attr unit notyet
vector 2498 "vehicularMecTest.mecHost.\n1566" mecappul_delay:vector ETV
attr recordingmode vector
attr source mecapp_ul_delaySignal
attr title "e2e delay"
attr unit notyet
vector 2499 "vehicularMecTest.mecHost.\n1562" mecapp_pk_rcv_size:vector ETV
attr recordingmode vector
attr source mecapp_pk_rcv_sizeSignal
attr title "size of preceived packet"
attr unit notyet
vector 2500 "vehicularMecTest.mecHost.\n1562" mecappul_delay:vector ETV
attr recordingmode vector
attr source mecapp_ul_delaySignal
attr title "e2e delay"
attr unit notyet
vector 2501 "vehicularMecTest.mecHost.\n1570" mecapp_pk_rcv_size:vector ETV
attr recordingmode vector
attr source mecapp_pk_rcv_sizeSignal
attr title "size of preceived packet"
attr unit notyet
vector 2502 "vehicularMecTest.mecHost.\n1570" mecappul_delay:vector ETV
attr recordingmode vector
attr source mecapp_ul_delaySignal
attr title "e2e delay"
attr unit notyet
vector 2503 "vehicularMecTest.mecHost.\n1574" mecapp_pk_rcv_size:vector ETV
attr recordingmode vector
attr source mecapp_pk_rcv_sizeSignal
attr title "size of preceived packet"
attr unit notyet
vector 2504 "vehicularMecTest.mecHost.\n1574" mecappul_delay:vector ETV
attr recordingmode vector
attr source mecapp_ul_delaySignal
attr title "e2e delay"
attr unit notyet
vector 2505 "vehicularMecTest.mecHost.\n1578" mecapp_pk_rcv_size:vector ETV
attr recordingmode vector
attr source mecapp_pk_rcv_sizeSignal
attr title "size of preceived packet"
attr unit notyet
vector 2506 "vehicularMecTest.mecHost.\n1578" mecappul_delay:vector ETV
attr recordingmode vector
attr source mecapp_ul_delaySignal
attr title "e2e delay"
attr unit notyet
vector 2507 "vehicularMecTest.mecHost.\n1582" mecapp_pk_rcv_size:vector ETV
attr recordingmode vector
attr source mecapp_pk_rcv_sizeSignal
attr title "size of preceived packet"
attr unit notyet
vector 2508 "vehicularMecTest.mecHost.\n1582" mecappul_delay:vector ETV
attr recordingmode vector
attr source mecapp_ul_delaySignal
attr title "e2e delay"
attr unit notyet
vector 2509 "vehicularMecTest.mecHost.\n1586" mecapp_pk_rcv_size:vector ETV
attr recordingmode vector
attr source mecapp_pk_rcv_sizeSignal
attr title "size of preceived packet"
attr unit notyet
vector 2510 "vehicularMecTest.mecHost.\n1586" mecappul_delay:vector ETV
attr recordingmode vector
attr source mecapp_ul_delaySignal
attr title "e2e delay"
attr unit notyet
vector 2511 "vehicularMecTest.mecHost.\n1594" mecapp_pk_rcv_size:vector ETV
attr recordingmode vector
attr source mecapp_pk_rcv_sizeSignal
attr title "size of preceived packet"
attr unit notyet
vector 2512 "vehicularMecTest.mecHost.\n1594" mecappul_delay:vector ETV
attr recordingmode vector
attr source mecapp_ul_delaySignal
attr title "e2e delay"
attr unit notyet
vector 2513 "vehicularMecTest.mecHost.\n1614" mecapp_pk_rcv_size:vector ETV
attr recordingmode vector
attr source mecapp_pk_rcv_sizeSignal
attr title "size of preceived packet"
attr unit notyet
vector 2514 "vehicularMecTest.mecHost.\n1614" mecappul_delay:vector ETV
attr recordingmode vector
attr source mecapp_ul_delaySignal
attr title "e2e delay"
attr unit notyet
vector 2515 "vehicularMecTest.mecHost.\n1618" mecapp_pk_rcv_size:vector ETV
attr recordingmode vector
attr source mecapp_pk_rcv_sizeSignal
attr title "size of preceived packet"
attr unit notyet
vector 2516 "vehicularMecTest.mecHost.\n1618" mecappul_delay:vector ETV
attr recordingmode vector
attr source mecapp_ul_delaySignal
attr title "e2e delay"
attr unit notyet
vector 2517 "vehicularMecTest.mecHost.\n1606" mecapp_pk_rcv_size:vector ETV
attr recordingmode vector
attr source mecapp_pk_rcv_sizeSignal
attr title "size of preceived packet"
attr unit notyet
vector 2518 "vehicularMecTest.mecHost.\n1606" mecappul_delay:vector ETV
attr recordingmode vector
attr source mecapp_ul_delaySignal
attr title "e2e delay"
attr unit notyet
vector 2519 "vehicularMecTest.mecHost.\n1590" mecapp_pk_rcv_size:vector ETV
attr recordingmode vector
attr source mecapp_pk_rcv_sizeSignal
attr title "size of preceived packet"
attr unit notyet
vector 2520 "vehicularMecTest.mecHost.\n1590" mecappul_delay:vector ETV
attr recordingmode vector
attr source mecapp_ul_delaySignal
attr title "e2e delay"
attr unit notyet
vector 2521 "vehicularMecTest.mecHost.\n1610" mecapp_pk_rcv_size:vector ETV
attr recordingmode vector
attr source mecapp_pk_rcv_sizeSignal
attr title "size of preceived packet"
attr unit notyet
vector 2522 "vehicularMecTest.mecHost.\n1610" mecappul_delay:vector ETV
attr recordingmode vector
attr source mecapp_ul_delaySignal
attr title "e2e delay"
attr unit notyet
vector 2523 vehicularMecTest.car[15].cellularNic.n